geometry optimzed in LAMMPS
_audit_creation_date              2020-11-30 
_audit_creation_method            'lammps2cif' 
_symmetry_space_group_name_H-M    'P1' 
_symmetry_Int_Tables_number       1 
_symmetry_cell_setting            triclinic 
loop_ 
_symmetry_equiv_pos_as_xyz 
  x,y,z 
_cell_length_a                    110.40636966 
_cell_length_b                    109.36223489684564 
_cell_length_c                    37.731935617312296 
_cell_angle_alpha                 90.06865185697555 
_cell_angle_beta                  90.14340500969062 
_cell_angle_gamma                 90.6224907475806 
loop_ 
_atom_site_label 
_atom_site_type_symbol 
_atom_site_fract_x 
_atom_site_fract_y 
_atom_site_fract_z 
_atom_site_charge 
C1          C  0.42306625  0.90373087  0.69798971     0.86400
C2          C  0.41994562  0.89140927  0.71554793    -0.53900
C3          C  0.42548073  0.88154372  0.70038596     0.09300
C4          C  0.43339273  0.88495090  0.66791070     0.20300
C5          C  0.43692652  0.90427108  0.69791365    -0.54600
C6          C  0.44235883  0.89459892  0.68218348     0.09400
C7          C  0.41948143  0.90187091  0.65881215    -0.54100
C8          C  0.42502760  0.89219467  0.64273515     0.10000
H9          H  0.41384906  0.89040604  0.73781046     0.14500
H10         H  0.43791707  0.87710306  0.65501429     0.00200
H11         H  0.44206588  0.91180736  0.70957268     0.14800
H12         H  0.41372841  0.90814655  0.64439148     0.14600
C13         C  0.42182674  0.87579551  0.32130113     0.86400
C14         C  0.41806824  0.88791977  0.30407911    -0.53900
C15         C  0.42332436  0.89812669  0.31890812     0.09300
C16         C  0.43159539  0.89515794  0.35105343     0.20300
C17         C  0.43569621  0.87611213  0.32066804    -0.54600
C18         C  0.44095775  0.88606880  0.33646720     0.09400
C19         C  0.41845311  0.87741161  0.36069621    -0.54100
C20         C  0.42371440  0.88741758  0.37661176     0.10000
H21         H  0.41179234  0.88845470  0.28201833     0.14500
H22         H  0.43568478  0.90331102  0.36401573     0.00200
H23         H  0.44085791  0.86892193  0.30810154     0.14800
H24         H  0.41296153  0.87085741  0.37529589     0.14600
C25         C  0.43037631  0.08569327  0.70466325     0.86400
C26         C  0.42622595  0.08746113  0.66579533    -0.53900
C27         C  0.43162889  0.09723699  0.64914215     0.09300
C28         C  0.44029365  0.10461527  0.67335606     0.20300
C29         C  0.44424844  0.08530438  0.70242716    -0.54600
C30         C  0.44938865  0.09514922  0.68620346     0.09400
C31         C  0.42759339  0.09797036  0.72254324    -0.54100
C32         C  0.43292944  0.10788645  0.70665399     0.10000
H33         H  0.42014980  0.08130505  0.65174975     0.14500
H34         H  0.44468094  0.11258723  0.66023637     0.00200
H35         H  0.44958212  0.07781814  0.71285069     0.14800
H36         H  0.42217758  0.09869140  0.74641896     0.14600
C37         C  0.42935804  0.08591675  0.32884662     0.86400
C38         C  0.42620559  0.09806000  0.31034412    -0.53900
C39         C  0.43144012  0.10814970  0.32576951     0.09300
C40         C  0.43908573  0.10520096  0.35903002     0.20300
C41         C  0.44325258  0.08590863  0.33039039    -0.54600
C42         C  0.44848217  0.09583717  0.34657753     0.09400
C43         C  0.42536867  0.08787772  0.36762854    -0.54100
C44         C  0.43065223  0.09782500  0.38374351     0.10000
H45         H  0.42090446  0.09865310  0.28617198     0.14500
H46         H  0.44292721  0.11346883  0.37200954     0.00200
H47         H  0.44841922  0.07850963  0.31895978     0.14800
H48         H  0.41948661  0.08158406  0.38185842     0.14600
C49         C  0.42596749  0.98132398  0.20498612     0.86400
C50         C  0.43978898  0.98224341  0.20234255    -0.53900
C51         C  0.44402971  0.99272478  0.18708954     0.09300
C52         C  0.43403303  0.00156190  0.17601513     0.20300
C53         C  0.42219029  0.99302077  0.22469301    -0.54600
C54         C  0.42652264  0.00368063  0.21003453     0.09400
C55         C  0.42146038  0.98338003  0.16672133    -0.54100
C56         C  0.42591307  0.99380045  0.15100470     0.10000
H57         H  0.44575085  0.97501853  0.21125264     0.14500
H58         H  0.43765479  0.01007015  0.16388419     0.00200
H59         H  0.41659254  0.99287223  0.24826598     0.14800
H60         H  0.41591563  0.97677981  0.15243900     0.14600
C61         C  0.42652359  0.98243826  0.83023210     0.86400
C62         C  0.42251754  0.99443512  0.81316313    -0.53900
C63         C  0.42741722  0.00483230  0.82796834     0.09300
C64         C  0.43550571  0.00205205  0.86069858     0.20300
C65         C  0.44038970  0.98308228  0.83088332    -0.54600
C66         C  0.44514635  0.99319001  0.84708165     0.09400
C67         C  0.42280075  0.98386298  0.86926517    -0.54100
C68         C  0.42754674  0.99406521  0.88559742     0.10000
H69         H  0.41628553  0.99445513  0.79095167     0.14500
H70         H  0.43956162  0.01019672  0.87371319     0.00200
H71         H  0.44601375  0.97589703  0.82004271     0.14800
H72         H  0.41729256  0.97725045  0.88338477     0.14600
C73         C  0.55051633  0.90513631  0.32601387     0.86400
C74         C  0.55324660  0.89294652  0.30743180    -0.53900
C75         C  0.54788037  0.88288273  0.32259178     0.09300
C76         C  0.54071267  0.88596447  0.35654878     0.20300
C77         C  0.53664378  0.90542154  0.32847394    -0.54600
C78         C  0.53141978  0.89548236  0.34435248     0.09400
C79         C  0.55474963  0.90316062  0.36461173    -0.54100
C80         C  0.54950691  0.89323048  0.38102230     0.10000
H81         H  0.55845847  0.89244900  0.28312394     0.14500
H82         H  0.53657934  0.87783153  0.36938062     0.00200
H83         H  0.53140168  0.91282682  0.31727429     0.14800
H84         H  0.56080007  0.90934624  0.37861251     0.14600
C85         C  0.55207911  0.90408438  0.70353821     0.86400
C86         C  0.55603862  0.90225935  0.66472830    -0.53900
C87         C  0.55019287  0.89285612  0.64742605     0.09300
C88         C  0.54126678  0.88574612  0.67160273     0.20300
C89         C  0.53824065  0.90504479  0.70171623    -0.54600
C90         C  0.53258555  0.89551060  0.68514982     0.09400
C91         C  0.55435338  0.89161213  0.72111861    -0.54100
C92         C  0.54853544  0.88199349  0.70481338     0.10000
H93         H  0.56225500  0.90848892  0.65149298     0.14500
H94         H  0.53650604  0.87801433  0.65837497     0.00200
H95         H  0.53330487  0.91264148  0.71309623     0.14800
H96         H  0.55992629  0.89037657  0.74447255     0.14600
C97         C  0.55726368  0.08666656  0.69927671     0.86400
C98         C  0.56045865  0.09883894  0.71797956    -0.53900
C99         C  0.55579086  0.10905066  0.70196603     0.09300
C100        C  0.54858618  0.10602937  0.66777555     0.20300
C101        C  0.54346164  0.08671345  0.69566822    -0.54600
C102        C  0.53893912  0.09670628  0.67925439     0.09400
C103        C  0.56193545  0.08853031  0.66098585    -0.54100
C104        C  0.55721558  0.09856142  0.64425710     0.10000
H105        H  0.56608758  0.09936061  0.74150074     0.14500
H106        H  0.54462870  0.11403763  0.65413109     0.00200
H107        H  0.53767353  0.07933297  0.70530688     0.14800
H108        H  0.56761870  0.08201105  0.64733123     0.14600
C109        C  0.55722211  0.11475846  0.32307241     0.86400
C110        C  0.55984016  0.10258594  0.30391873    -0.53900
C111        C  0.55500777  0.09245387  0.32004427     0.09300
C112        C  0.54821656  0.09545034  0.35481964     0.20300
C113        C  0.54338282  0.11480838  0.32719494    -0.54600
C114        C  0.53860664  0.10480740  0.34386886     0.09400
C115        C  0.56206718  0.11284094  0.36102808    -0.54100
C116        C  0.55712576  0.10295025  0.37821263     0.10000
H117        H  0.56498465  0.10181685  0.27966645     0.14500
H118        H  0.54442838  0.08728171  0.36842820     0.00200
H119        H  0.53783145  0.12218915  0.31719087     0.14800
H120        H  0.56791880  0.11945099  0.37432266     0.14600
C121        C  0.55393334  0.98373385  0.83048823     0.86400
C122        C  0.55766065  0.98585269  0.86939112    -0.53900
C123        C  0.55284864  0.99620074  0.88427943     0.09300
C124        C  0.54491634  0.00361543  0.85821584     0.20300
C125        C  0.54006556  0.98404523  0.83097572    -0.54600
C126        C  0.53527093  0.99427552  0.84582070     0.09400
C127        C  0.55786266  0.99557383  0.81176956    -0.54100
C128        C  0.55297918  0.00599531  0.82533646     0.10000
H129        H  0.56311185  0.97950862  0.88441720     0.14500
H130        H  0.54100120  0.01203335  0.86970169     0.00200
H131        H  0.53447297  0.97653910  0.82108201     0.14800
H132        H  0.56392901  0.99567559  0.78916826     0.14600
C133        C  0.55191836  0.98618715  0.20343921     0.86400
C134        C  0.55520957  0.99820388  0.22297790    -0.53900
C135        C  0.55060100  0.00860408  0.20773177     0.09300
C136        C  0.54324515  0.00586403  0.17346763     0.20300
C137        C  0.53807748  0.98638168  0.20036613    -0.54600
C138        C  0.53351826  0.99650177  0.18445684     0.09400
C139        C  0.55642109  0.98832665  0.16538234    -0.54100
C140        C  0.55175988  0.99847571  0.14916095     0.10000
H141        H  0.56086528  0.99857070  0.24636110     0.14500
H142        H  0.53931539  0.01402995  0.16069355     0.00200
H143        H  0.53231581  0.97889271  0.20939316     0.14800
H144        H  0.56202321  0.98175787  0.15162928     0.14600
C145        C  0.87315509  0.56702275  0.67620693     0.86400
C146        C  0.87482310  0.57286457  0.63948215    -0.53900
C147        C  0.88434100  0.56844622  0.62029479     0.09300
C148        C  0.89203621  0.55917937  0.64126094     0.20300
C149        C  0.87310599  0.55321078  0.66928384    -0.54600
C150        C  0.88288209  0.54903055  0.65106690     0.09400
C151        C  0.88531341  0.56955996  0.69508432    -0.54100
C152        C  0.89528430  0.56532180  0.67725277     0.10000
H153        H  0.86833683  0.57917496  0.62824071     0.14500
H154        H  0.89992807  0.55576594  0.62620792     0.00200
H155        H  0.86591651  0.54720481  0.67877683     0.14800
H156        H  0.88604090  0.57414477  0.72048061     0.14600
C157        C  0.86970322  0.57020485  0.29833021     0.86400
C158        C  0.88155749  0.57417096  0.27992283    -0.53900
C159        C  0.89190902  0.56954324  0.29497435     0.09300
C160        C  0.88925548  0.56177247  0.32866758     0.20300
C161        C  0.87029933  0.55622911  0.29983098    -0.54600
C162        C  0.88045951  0.55174344  0.31544655     0.09400
C163        C  0.87146740  0.57445630  0.33673416    -0.54100
C164        C  0.88140098  0.56975905  0.35342685     0.10000
H165        H  0.88173258  0.57998407  0.25672436     0.14500
H166        H  0.89733141  0.55797185  0.34200211     0.00200
H167        H  0.86331819  0.55036702  0.28831498     0.14800
H168        H  0.86497259  0.58016054  0.35035693     0.14600
C169        C  0.10493290  0.54562032  0.67997144     0.86400
C170        C  0.09297143  0.54947234  0.69717552    -0.53900
C171        C  0.08271760  0.54522921  0.68036071     0.09300
C172        C  0.08559440  0.53787753  0.64616965     0.20300
C173        C  0.10399535  0.53173907  0.67626290    -0.54600
C174        C  0.09406114  0.52764415  0.65827169     0.09400
C175        C  0.10394232  0.55046145  0.64178061    -0.54100
C176        C  0.09396650  0.54624333  0.62360486     0.10000
H177        H  0.09272354  0.55520605  0.72058641     0.14500
H178        H  0.07758736  0.53422819  0.63170681     0.00200
H179        H  0.11089332  0.52561489  0.68630215     0.14800
H180        H  0.11067671  0.55642859  0.62976333     0.14600
C181        C  0.07245317  0.54664758  0.30302559     0.86400
C182        C  0.08467300  0.55015764  0.28594013    -0.53900
C183        C  0.09459422  0.54534546  0.30259278     0.09300
C184        C  0.09131127  0.53782797  0.33587315     0.20300
C185        C  0.07261682  0.53263138  0.30502573    -0.54600
C186        C  0.08247194  0.52793342  0.32203981     0.09400
C187        C  0.07381485  0.55097432  0.34173161    -0.54100
C188        C  0.08351890  0.54618964  0.35931551     0.10000
H189        H  0.08538130  0.55568292  0.26216060     0.14500
H190        H  0.09917261  0.53402346  0.35017129     0.00200
H191        H  0.06564261  0.52696789  0.29274651     0.14800
H192        H  0.06767904  0.55726817  0.35444308     0.14600
C193        C  0.97176363  0.55921247  0.16876521     0.86400
C194        C  0.97315238  0.56226598  0.12907849    -0.53900
C195        C  0.98315518  0.55736651  0.11326147     0.09300
C196        C  0.99119926  0.55018111  0.13935071     0.20300
C197        C  0.97257182  0.54520186  0.17049748    -0.54600
C198        C  0.98268253  0.54036444  0.15515533     0.09400
C199        C  0.98371830  0.56378765  0.18539570    -0.54100
C200        C  0.99396966  0.55877548  0.17112363     0.10000
H201        H  0.96674603  0.56763041  0.11410208     0.14500
H202        H  0.99927966  0.54638216  0.12625275     0.00200
H203        H  0.96574989  0.53969427  0.18386396     0.14800
H204        H  0.98393126  0.56988974  0.20808000     0.14600
C205        C  0.97746101  0.55313335  0.79027844     0.86400
C206        C  0.98952586  0.55591962  0.77132194    -0.53900
C207        C  0.99957553  0.55157174  0.78857832     0.09300
C208        C  0.99656764  0.54500101  0.82401045     0.20300
C209        C  0.97752284  0.53921424  0.79588520    -0.54600
C210        C  0.98752247  0.53494461  0.81299601     0.09400
C211        C  0.97930820  0.55856876  0.82752460    -0.54100
C212        C  0.98886765  0.55394933  0.84625740     0.10000
H213        H  0.99018233  0.56072819  0.74631287     0.14500
H214        H  0.00454307  0.54135984  0.83835115     0.00200
H215        H  0.97030476  0.53319218  0.78649526     0.14800
H216        H  0.97281721  0.56470677  0.83949472     0.14600
C217        C  0.90476503  0.44254891  0.28289224     0.86400
C218        C  0.89281885  0.43897064  0.26430504    -0.53900
C219        C  0.88264925  0.44372758  0.27967697     0.09300
C220        C  0.88546509  0.45152057  0.31297135     0.20300
C221        C  0.90452519  0.45659917  0.28443545    -0.54600
C222        C  0.89448586  0.46144840  0.30014791     0.09400
C223        C  0.90293383  0.43856291  0.32189423    -0.54100
C224        C  0.89294672  0.44336936  0.33779988     0.10000
H225        H  0.89252073  0.43343386  0.24041283     0.14500
H226        H  0.87727936  0.45504880  0.32610687     0.00200
H227        H  0.91173410  0.46211884  0.27303116     0.14800
H228        H  0.90918884  0.43309537  0.33697293     0.14600
C229        C  0.89978084  0.43886479  0.66054807     0.86400
C230        C  0.89865592  0.43538671  0.62112026    -0.53900
C231        C  0.88922514  0.44081194  0.60370445     0.09300
C232        C  0.88141714  0.44893680  0.62811368     0.20300
C233        C  0.90002660  0.45289856  0.66079852    -0.54600
C234        C  0.89057292  0.45829640  0.64348673     0.09400
C235        C  0.88735010  0.43537177  0.67609579    -0.54100
C236        C  0.87767825  0.44090172  0.66021156     0.10000
H237        H  0.90525352  0.42977961  0.60760518     0.14500
H238        H  0.87362726  0.45302235  0.61410540     0.00200
H239        H  0.90718404  0.45803519  0.67403832     0.14800
H240        H  0.88618624  0.42924001  0.69837362     0.14600
C241        C  0.10495262  0.42068611  0.69295406     0.86400
C242        C  0.10335463  0.41421480  0.65704852    -0.53900
C243        C  0.09377256  0.41823213  0.63725560     0.09300
C244        C  0.08589572  0.42758117  0.65713419     0.20300
C245        C  0.10470483  0.43437975  0.68422977    -0.54600
C246        C  0.09482766  0.43798951  0.66548161     0.09400
C247        C  0.09292385  0.41822647  0.71225643    -0.54100
C248        C  0.08289083  0.42191662  0.69375252     0.10000
H249        H  0.11008883  0.40803065  0.64652896     0.14500
H250        H  0.07789113  0.43069096  0.64190818     0.00200
H251        H  0.11184942  0.44072346  0.69226201     0.14800
H252        H  0.09224291  0.41402104  0.73814458     0.14600
C253        C  0.10845305  0.41939324  0.31548205     0.86400
C254        C  0.09642898  0.41527604  0.29844885    -0.53900
C255        C  0.08618896  0.42006442  0.31384292     0.09300
C256        C  0.08932519  0.42812152  0.34681725     0.20300
C257        C  0.10791042  0.43337268  0.31600959    -0.54600
C258        C  0.09796859  0.43801758  0.33230565     0.09400
C259        C  0.10712985  0.41546465  0.35425020    -0.54100
C260        C  0.09741761  0.42034134  0.37130474     0.10000
H261        H  0.09631506  0.40930324  0.27567296     0.14500
H262        H  0.08159760  0.43202754  0.36126913     0.00200
H263        H  0.11477215  0.43907768  0.30345714     0.14800
H264        H  0.11360448  0.40966801  0.36764876     0.14600
C265        C  0.00926660  0.43165065  0.17453971     0.86400
C266        C  0.00860899  0.42749526  0.13547884    -0.53900
C267        C  0.99913586  0.43226769  0.11677246     0.09300
C268        C  0.99101187  0.44064017  0.13938971     0.20300
C269        C  0.00922779  0.44568479  0.17263377    -0.54600
C270        C  0.99966171  0.45042773  0.15466360     0.09400
C271        C  0.99678399  0.42811755  0.18961638    -0.54100
C272        C  0.98700665  0.43291264  0.17185725     0.10000
H273        H  0.01491283  0.42133061  0.12318531     0.14500
H274        H  0.98368405  0.44484080  0.12387706     0.00200
H275        H  0.01598288  0.45139044  0.18581172     0.14800
H276        H  0.99611103  0.42247941  0.21306632     0.14600
C277        C  0.97690845  0.42670489  0.79639807     0.86400
C278        C  0.97860906  0.44059935  0.79752330    -0.53900
C279        C  0.98873091  0.44454082  0.81474549     0.09300
C280        C  0.99653302  0.43419931  0.82930746     0.20300
C281        C  0.98873020  0.42183600  0.78036827    -0.54600
C282        C  0.99912812  0.42592512  0.79686434     0.09400
C283        C  0.97753943  0.42275131  0.83562248    -0.54100
C284        C  0.98775214  0.42679794  0.85310493     0.10000
H285        H  0.97203716  0.44690084  0.78655684     0.14500
H286        H  0.00460327  0.43783962  0.84345733     0.00200
H287        H  0.98873803  0.41581253  0.75753521     0.14800
H288        H  0.97053101  0.41745700  0.84880720     0.14600
O289        O  0.54630282  0.67656100  0.33907728    -0.57900
C290        C  0.55506438  0.69318308  0.25375927     0.74700
O291        O  0.55891740  0.64860347  0.25679187    -0.59100
C292        C  0.55242181  0.66877527  0.35599824     0.74700
C293        C  0.52534529  0.66221353  0.26658911     0.77100
Cd294      Cd  0.55086003  0.66849971  0.27959675     1.37500
O295        O  0.55658516  0.69036535  0.28598423    -0.57900
O296        O  0.53136956  0.65783436  0.29201496    -0.56700
C297        C  0.56991853  0.65200863  0.25591547     0.77000
O298        O  0.53128960  0.66882877  0.24515164    -0.59100
O299        O  0.55217526  0.68446873  0.23310076    -0.57600
O300        O  0.55805927  0.66105414  0.33753469    -0.57500
O301        O  0.57189706  0.66315000  0.26307189    -0.56700
O302        O  0.54617901  0.67277964  0.63918551    -0.57900
C303        C  0.55769737  0.69063516  0.72454744     0.74700
O304        O  0.53556491  0.66530121  0.73588985    -0.59100
C305        C  0.55370437  0.66687361  0.62084226     0.74700
C306        C  0.57254474  0.64862647  0.71825100     0.77100
Cd307      Cd  0.55374106  0.66586006  0.69726136     1.37500
O308        O  0.55857327  0.68821205  0.69184305    -0.57900
O309        O  0.57479152  0.65983336  0.71272151    -0.56700
C310        C  0.52905311  0.65870892  0.71571438     0.77000
O311        O  0.56150406  0.64546594  0.71615573    -0.59100
O312        O  0.55560456  0.68157499  0.74460489    -0.57600
O313        O  0.56141106  0.66073267  0.63787919    -0.57500
O314        O  0.53421417  0.65463767  0.68832289    -0.56700
C315        C  0.54680746  0.77573880  0.81710616     0.86400
C316        C  0.53295781  0.77465932  0.81816249    -0.53900
C317        C  0.52725437  0.78465713  0.83139548     0.09300
C318        C  0.53596229  0.79497089  0.84262503     0.20300
C319        C  0.54929988  0.78759431  0.79590717    -0.54600
C320        C  0.54360977  0.79769576  0.80942526     0.09400
C321        C  0.55052711  0.77908984  0.85545092    -0.54100
C322        C  0.54466512  0.78899334  0.86925067     0.10000
H323        H  0.52807837  0.76659822  0.80878587     0.14500
H324        H  0.53126293  0.80308965  0.85324040     0.00200
H325        H  0.55515160  0.78810889  0.77292086     0.14800
H326        H  0.55674636  0.77362946  0.87093402     0.14600
C327        C  0.54385255  0.78042473  0.18143648     0.86400
C328        C  0.54611672  0.79155591  0.20588038    -0.53900
C329        C  0.54118848  0.80226483  0.19352547     0.09300
C330        C  0.53450961  0.80070812  0.15748064     0.20300
C331        C  0.53007885  0.78000535  0.17664958    -0.54600
C332        C  0.52516293  0.79047979  0.16394575     0.09400
C333        C  0.54882021  0.78450681  0.14535291    -0.54100
C334        C  0.54378495  0.79490641  0.13201118     0.10000
H335        H  0.55123044  0.79115359  0.23035375     0.14500
H336        H  0.53033993  0.80915241  0.14705275     0.00200
H337        H  0.52463533  0.77193849  0.18272885     0.14800
H338        H  0.55495412  0.77885930  0.13015557     0.14600
O339        O  0.67759351  0.58469423  0.27739545    -0.57900
C340        C  0.65752602  0.57832290  0.35770018     0.74700
O341        O  0.63616772  0.58123966  0.26025150    -0.59100
C342        C  0.68048719  0.57943749  0.24878836     0.74700
C343        C  0.65405513  0.54904580  0.27496900     0.77100
Cd344      Cd  0.65692873  0.57558151  0.28132726     1.37500
O345        O  0.66713223  0.57897565  0.33950662    -0.57900
O346        O  0.65601560  0.55448756  0.30401549    -0.56700
C347        C  0.63814789  0.59261393  0.25743006     0.77000
O348        O  0.65284777  0.55588263  0.24811008    -0.59100
O349        O  0.64776559  0.57689077  0.34045816    -0.57600
O350        O  0.67222375  0.57313141  0.23397045    -0.57500
O351        O  0.64894764  0.59604383  0.26330309    -0.56700
O352        O  0.67997628  0.57879032  0.69347753    -0.57900
C353        C  0.65808137  0.57414921  0.62251823     0.74700
O354        O  0.65788999  0.55213794  0.73413246    -0.59100
C355        C  0.68312195  0.57609511  0.72475638     0.74700
C356        C  0.63976204  0.58819423  0.72317187     0.77100
Cd357      Cd  0.65857607  0.57146550  0.69857215     1.37500
O358        O  0.66781887  0.57494605  0.64016082    -0.57900
O359        O  0.65047341  0.59175675  0.71672721    -0.56700
C360        C  0.65569138  0.54526965  0.70781380     0.77000
O361        O  0.63793960  0.57678726  0.72109145    -0.59100
O362        O  0.64850570  0.57229742  0.64015431    -0.57600
O363        O  0.67478146  0.57191507  0.74454090    -0.57500
O364        O  0.65451975  0.55053871  0.67828504    -0.56700
C365        C  0.76662251  0.57015500  0.16885651     0.86400
C366        C  0.76972791  0.57465876  0.13130611    -0.53900
C367        C  0.78057048  0.57063884  0.11840489     0.09300
C368        C  0.78746927  0.56259826  0.14503450     0.20300
C369        C  0.76778715  0.55621654  0.16710339    -0.54600
C370        C  0.77859494  0.55225783  0.15465052     0.09400
C371        C  0.77757083  0.57428579  0.19177105    -0.54100
C372        C  0.78851135  0.57030618  0.17923665     0.10000
H373        H  0.76342365  0.57994085  0.11556602     0.14500
H374        H  0.79628823  0.55916124  0.13545686     0.00200
H375        H  0.76065387  0.54994867  0.17555417     0.14800
H376        H  0.77694691  0.57972128  0.21566754     0.14600
C377        C  0.76985730  0.57124578  0.80453961     0.86400
C378        C  0.78112354  0.57482843  0.78237104    -0.53900
C379        C  0.79184726  0.57035958  0.79574293     0.09300
C380        C  0.79018835  0.56271060  0.82986208     0.20300
C381        C  0.77034838  0.55727922  0.80670317    -0.54600
C382        C  0.78088631  0.55276964  0.81973522     0.09400
C383        C  0.77299007  0.57571977  0.84209232    -0.54100
C384        C  0.78343971  0.57110418  0.85597822     0.10000
H385        H  0.78076732  0.58037199  0.75862046     0.14500
H386        H  0.79869760  0.55887023  0.84058280     0.00200
H387        H  0.76289086  0.55138996  0.79822197     0.14800
H388        H  0.76686841  0.58136783  0.85730629     0.14600
O389        O  0.31269333  0.55119822  0.65603323    -0.57900
C390        C  0.29080576  0.56074646  0.74143945     0.74700
O391        O  0.31909322  0.54088433  0.75256582    -0.59100
C392        C  0.31429956  0.56101406  0.63899560     0.74700
C393        C  0.33438228  0.57788947  0.73585460     0.77100
Cd394      Cd  0.31584332  0.55953582  0.71518120     1.37500
O395        O  0.29342759  0.56218437  0.70911044    -0.57900
O396        O  0.32320579  0.58030804  0.73427233    -0.56700
C397        C  0.32311774  0.53444313  0.72731208     0.77000
O398        O  0.33700990  0.56682057  0.73026572    -0.59100
O399        O  0.29975714  0.55941864  0.76211416    -0.57600
O400        O  0.31648063  0.57050863  0.65729467    -0.57500
O401        O  0.32452427  0.53988200  0.69805482    -0.56700
O402        O  0.28826910  0.55670273  0.30791391    -0.57900
C403        C  0.31135925  0.55969275  0.37414142     0.74700
O404        O  0.31168153  0.53946715  0.26071939    -0.59100
C405        C  0.28485146  0.56013546  0.27760183     0.74700
C406        C  0.32685657  0.57799481  0.27233211     0.77100
Cd407      Cd  0.31052326  0.55846726  0.29753914     1.37500
O408        O  0.30775374  0.55027392  0.35762801    -0.57900
O409        O  0.31697998  0.58011238  0.28805260    -0.56700
C410        C  0.31930064  0.53415914  0.28044389     0.77000
O411        O  0.32895573  0.56682859  0.26610076    -0.59100
O412        O  0.31457329  0.56869892  0.35523127    -0.57600
O413        O  0.29325499  0.56316499  0.25641900    -0.57500
O414        O  0.32351219  0.54045260  0.30586267    -0.56700
C415        C  0.19990053  0.54628134  0.18989283     0.86400
C416        C  0.18827071  0.54829832  0.21162251    -0.53900
C417        C  0.17811073  0.54271380  0.19758697     0.09300
C418        C  0.18060473  0.53552282  0.16316449     0.20300
C419        C  0.20084056  0.53235897  0.18641423    -0.54600
C420        C  0.19082643  0.52673179  0.17259751     0.09400
C421        C  0.19643967  0.55062789  0.15223522    -0.54100
C422        C  0.18651781  0.54486529  0.13793227     0.10000
H423        H  0.18809729  0.55380283  0.23556594     0.14500
H424        H  0.17254992  0.53076334  0.15186457     0.00200
H425        H  0.20886766  0.52733813  0.19413460     0.14800
H426        H  0.20147806  0.55731272  0.13706669     0.14600
C427        C  0.20511641  0.54812337  0.82673009     0.86400
C428        C  0.20519323  0.53413565  0.82901463    -0.53900
C429        C  0.19471290  0.52891630  0.84117974     0.09300
C430        C  0.18481533  0.53827547  0.84912878     0.20300
C431        C  0.19406516  0.55106300  0.80343751    -0.54600
C432        C  0.18341415  0.54585816  0.81483597     0.09400
C433        C  0.20129601  0.55236050  0.86410364    -0.54100
C434        C  0.19078064  0.54703476  0.87616914     0.10000
H435        H  0.21310578  0.52882086  0.82213038     0.14500
H436        H  0.17627575  0.53400352  0.85865964     0.00200
H437        H  0.19447994  0.55702761  0.78055830     0.14800
H438        H  0.20683682  0.55838050  0.88047965     0.14600
O439        O  0.41916246  0.66090717  0.34859183    -0.57900
C440        C  0.40620258  0.68658764  0.26432593     0.74700
O441        O  0.42828743  0.66489545  0.25519069    -0.59100
C442        C  0.40964986  0.66214442  0.36668486     0.74700
C443        C  0.39062678  0.64360691  0.26786585     0.77100
Cd444      Cd  0.40935516  0.66162938  0.28973724     1.37500
O445        O  0.40621683  0.68396997  0.29698859    -0.57900
O446        O  0.38824973  0.65416455  0.27928523    -0.56700
C447        C  0.43464747  0.65729346  0.27214506     0.77000
O448        O  0.40179477  0.64138071  0.26427153    -0.59100
O449        O  0.40705384  0.67761116  0.24323782    -0.57600
O450        O  0.39990104  0.66310771  0.34930001    -0.57500
O451        O  0.42903035  0.65081483  0.29472831    -0.56700
O452        O  0.40952935  0.68679181  0.70062686    -0.57900
C453        C  0.41210679  0.66612650  0.63143084     0.74700
O454        O  0.43333453  0.66789906  0.73918602    -0.59100
C455        C  0.40927896  0.68960783  0.73313139     0.74700
C456        C  0.39653142  0.64540359  0.73141809     0.77100
Cd457      Cd  0.41351688  0.66479458  0.70800061     1.37500
O458        O  0.42196119  0.66745665  0.64811787    -0.57900
O459        O  0.39343110  0.65647842  0.72908346    -0.56700
C460        C  0.43885572  0.65944341  0.72313775     0.77000
O461        O  0.40759007  0.64338578  0.72537780    -0.59100
O462        O  0.40275936  0.66438975  0.65016251    -0.57600
O463        O  0.41049811  0.68082455  0.75476883    -0.57500
O464        O  0.43248108  0.65300240  0.70221543    -0.56700
C465        C  0.41727556  0.77345532  0.18223224     0.86400
C466        C  0.43113948  0.77405425  0.17932079    -0.53900
C467        C  0.43563505  0.78492117  0.16707183     0.09300
C468        C  0.42585538  0.79430753  0.15864030     0.20300
C469        C  0.41399862  0.78457277  0.20547171    -0.54600
C470        C  0.41851698  0.79551138  0.19319835     0.09400
C471        C  0.41268331  0.77694705  0.14499932    -0.54100
C472        C  0.41744189  0.78764788  0.13218980     0.10000
H473        H  0.43691578  0.76642902  0.18620246     0.14500
H474        H  0.42959870  0.80307599  0.14838692     0.00200
H475        H  0.40850077  0.78401693  0.22917107     0.14800
H476        H  0.40704337  0.77094137  0.12884332     0.14600
C477        C  0.41748428  0.77595265  0.81797797     0.86400
C478        C  0.41542347  0.78758271  0.79568285    -0.53900
C479        C  0.42101573  0.79787699  0.80924533     0.09300
C480        C  0.42821096  0.79548914  0.84368512     0.20300
C481        C  0.43128220  0.77502262  0.82102265    -0.54600
C482        C  0.43694735  0.78516790  0.83435319     0.09400
C483        C  0.41321222  0.77960443  0.85537588    -0.54100
C484        C  0.41903373  0.78959741  0.86922728     0.10000
H485        H  0.40995141  0.78769226  0.77175665     0.14500
H486        H  0.43285905  0.80367429  0.85487362     0.00200
H487        H  0.43616916  0.76694719  0.81268147     0.14800
H488        H  0.40655675  0.77451447  0.87058010     0.14600
O489        O  0.31206590  0.41174750  0.35669787    -0.57900
C490        C  0.29693847  0.41355079  0.26919574     0.74700
O491        O  0.31976640  0.43645733  0.26388352    -0.59100
C492        C  0.32098817  0.41542973  0.37513927     0.74700
C493        C  0.33877950  0.39925208  0.27430271     0.77100
Cd494      Cd  0.32110341  0.41718051  0.29856543     1.37500
O495        O  0.29949141  0.41060785  0.30076726    -0.57900
O496        O  0.32868255  0.39629755  0.28753998    -0.56700
C497        C  0.32462091  0.44333198  0.28699472     0.77000
O498        O  0.34054572  0.41058790  0.26988070    -0.59100
O499        O  0.30562844  0.41776405  0.25088523    -0.57600
O500        O  0.32982241  0.41996427  0.35817326    -0.57500
O501        O  0.32824153  0.43808577  0.31485597    -0.56700
O502        O  0.31109681  0.41064867  0.65793969    -0.57900
C503        C  0.29420973  0.41386598  0.74196146     0.74700
O504        O  0.33842905  0.41026629  0.74398103    -0.59100
C505        C  0.32015484  0.41445638  0.64043590     0.74700
C506        C  0.32340939  0.44328426  0.72813586     0.77100
Cd507      Cd  0.31890227  0.41725062  0.71677239     1.37500
O508        O  0.29680138  0.41504926  0.70952461    -0.57900
O509        O  0.32378616  0.43810652  0.69825604    -0.56700
C510        C  0.33630456  0.39896136  0.73989991     0.77000
O511        O  0.32106157  0.43638317  0.75423356    -0.59100
O512        O  0.30309784  0.41405417  0.76329599    -0.57600
O513        O  0.32868113  0.41926053  0.65831086    -0.57500
O514        O  0.32594734  0.39621519  0.72780563    -0.56700
C515        C  0.21080341  0.41854419  0.18506986     0.86400
C516        C  0.20948314  0.43250106  0.18430795    -0.53900
C517        C  0.19867553  0.43646644  0.17167556     0.09300
C518        C  0.18993893  0.42611796  0.16110850     0.20300
C519        C  0.19982617  0.41405420  0.20708474    -0.54600
C520        C  0.18885920  0.41804263  0.19440563     0.09400
C521        C  0.20786818  0.41434696  0.14709915    -0.54100
C522        C  0.19706244  0.41843879  0.13423807     0.10000
H523        H  0.21664618  0.43877585  0.19263945     0.14500
H524        H  0.18117518  0.42953659  0.15088484     0.00200
H525        H  0.20048436  0.40834513  0.23041015     0.14800
H526        H  0.21424049  0.40929697  0.13098034     0.14600
C527        C  0.20797358  0.42017602  0.82219722     0.86400
C528        C  0.19690273  0.41717593  0.79865492    -0.53900
C529        C  0.18615966  0.42133880  0.81210638     0.09300
C530        C  0.18753107  0.42823190  0.84762641     0.20300
C531        C  0.20758923  0.43406873  0.82732680    -0.54600
C532        C  0.19697662  0.43836517  0.84075509     0.09400
C533        C  0.20452157  0.41481200  0.85851755    -0.54100
C534        C  0.19402398  0.41924434  0.87240470     0.10000
H535        H  0.19735600  0.41193219  0.77429806     0.14500
H536        H  0.17887622  0.43170223  0.85835376     0.00200
H537        H  0.21521851  0.44000642  0.82085646     0.14800
H538        H  0.21037725  0.40871010  0.87315677     0.14600
O539        O  0.42031877  0.31311296  0.65100305    -0.57900
C540        C  0.42064580  0.29839653  0.74152725     0.74700
O541        O  0.44218852  0.32919900  0.74427827    -0.59100
C542        C  0.42114076  0.32302348  0.63377994     0.74700
C543        C  0.40345917  0.33865970  0.72986172     0.77100
Cd544      Cd  0.42330360  0.32250539  0.70986775     1.37500
O545        O  0.41750855  0.30053327  0.70991435    -0.57900
O546        O  0.40173229  0.32791952  0.71844468    -0.56700
C547        C  0.44923744  0.32807289  0.71800601     0.77000
O548        O  0.41443161  0.34184287  0.73412749    -0.59100
O549        O  0.42456099  0.30750706  0.75906071    -0.57600
O550        O  0.42288928  0.33265339  0.65184269    -0.57500
O551        O  0.44426378  0.32468228  0.68940001    -0.56700
O552        O  0.42653317  0.30023073  0.30162782    -0.57900
C553        C  0.42159207  0.32371926  0.36896796     0.74700
O554        O  0.44441435  0.32592698  0.25579547    -0.59100
C555        C  0.42384618  0.29709345  0.27030361     0.74700
C556        C  0.40554492  0.33840800  0.27026432     0.77100
Cd557      Cd  0.42531676  0.32247547  0.29324893     1.37500
O558        O  0.41839943  0.31447778  0.35085672    -0.57900
O559        O  0.40379223  0.32756288  0.28071022    -0.56700
C560        C  0.45118867  0.32798795  0.28240214     0.77000
O561        O  0.41653909  0.34172487  0.26769046    -0.59100
O562        O  0.42622841  0.33255729  0.35191707    -0.57600
O563        O  0.42160389  0.30574413  0.24898499    -0.57500
O564        O  0.44588481  0.32805964  0.31200943    -0.56700
C565        C  0.43563778  0.21073720  0.18801021     0.86400
C566        C  0.43242286  0.19939494  0.21052113    -0.53900
C567        C  0.43783484  0.18882812  0.19936828     0.09300
C568        C  0.44595600  0.19060869  0.16626108     0.20300
C569        C  0.44952885  0.21125092  0.18753769    -0.54600
C570        C  0.45497874  0.20088925  0.17583511     0.09400
C571        C  0.43212735  0.20688366  0.14998843    -0.54100
C572        C  0.43763330  0.19647848  0.13844055     0.10000
H573        H  0.42660300  0.19975931  0.23364124     0.14500
H574        H  0.45032816  0.18212824  0.15669084     0.00200
H575        H  0.45464789  0.21940957  0.19494968     0.14800
H576        H  0.42630903  0.21202131  0.13253709     0.14600
C577        C  0.43552786  0.21323802  0.82632417     0.86400
C578        C  0.44942877  0.21379036  0.82645131    -0.53900
C579        C  0.45486162  0.20351944  0.83882450     0.09300
C580        C  0.44590498  0.19342852  0.84968635     0.20300
C581        C  0.43239912  0.20167336  0.80443727    -0.54600
C582        C  0.43782119  0.19125466  0.81679666     0.09400
C583        C  0.43204005  0.20975718  0.86449650    -0.54100
C584        C  0.43763504  0.19954469  0.87696423     0.10000
H585        H  0.45455074  0.22179311  0.81788404     0.14500
H586        H  0.45045631  0.18515141  0.85993972     0.00200
H587        H  0.42628838  0.20150850  0.78196289     0.14800
H588        H  0.42628563  0.21537953  0.88102281     0.14600
O589        O  0.56708099  0.31717549  0.35111157    -0.57900
C590        C  0.57251221  0.30417604  0.26329394     0.74700
O591        O  0.54889275  0.33120972  0.25753022    -0.59100
C592        C  0.57078804  0.32610548  0.36967202     0.74700
C593        C  0.58590790  0.34697017  0.27292541     0.77100
Cd594      Cd  0.56808348  0.32814367  0.29372405     1.37500
O595        O  0.57549677  0.30682369  0.29477900    -0.57900
O596        O  0.58862729  0.33578617  0.27521084    -0.56700
C597        C  0.54211140  0.33268926  0.28418918     0.77000
O598        O  0.57485949  0.34937185  0.27799224    -0.59100
O599        O  0.56815926  0.31282500  0.24508800    -0.57600
O600        O  0.57342183  0.33580935  0.35300977    -0.57500
O601        O  0.54742511  0.33271399  0.31387757    -0.56700
O602        O  0.56625848  0.31561058  0.65204021    -0.57900
C603        C  0.56937083  0.30187198  0.73816979     0.74700
O604        O  0.57372700  0.34636639  0.73314858    -0.59100
C605        C  0.56867429  0.32509438  0.63410988     0.74700
C606        C  0.53998738  0.33163304  0.71794679     0.77100
Cd607      Cd  0.56578841  0.32625513  0.70984762     1.37500
O608        O  0.57114565  0.30447981  0.70598833    -0.57900
O609        O  0.54550729  0.33182937  0.68867152    -0.56700
C610        C  0.58482476  0.34380271  0.72998310     0.77000
O611        O  0.54649879  0.32955830  0.74492507    -0.59100
O612        O  0.56640434  0.31069996  0.75806360    -0.57600
O613        O  0.56971377  0.33500483  0.65129474    -0.57500
O614        O  0.58703642  0.33294555  0.72071698    -0.56700
C615        C  0.56362255  0.21709612  0.18395107     0.86400
C616        C  0.56793498  0.21332999  0.14685696    -0.53900
C617        C  0.56311056  0.20253721  0.13468167     0.09300
C618        C  0.55463321  0.19621804  0.16159921     0.20300
C619        C  0.54975338  0.21663411  0.18174091    -0.54600
C620        C  0.54500746  0.20584937  0.16982994     0.09400
C621        C  0.56681741  0.20612452  0.20786179    -0.54100
C622        C  0.56210702  0.19516807  0.19612214     0.10000
H623        H  0.57357000  0.21925530  0.13055018     0.14500
H624        H  0.55074233  0.18740052  0.15209557     0.00200
H625        H  0.54412791  0.22432314  0.18908633     0.14800
H626        H  0.57218045  0.20675218  0.23186836     0.14600
C627        C  0.56342658  0.21498310  0.82103812     0.86400
C628        C  0.56588533  0.20360348  0.79775796    -0.53900
C629        C  0.56105738  0.19293771  0.81132173     0.09300
C630        C  0.55419941  0.19473885  0.84659208     0.20300
C631        C  0.54962609  0.21500426  0.82517813    -0.54600
C632        C  0.54478424  0.20452793  0.83862156     0.09400
C633        C  0.56830181  0.21149591  0.85792999    -0.54100
C634        C  0.56325698  0.20109021  0.87189788     0.10000
H635        H  0.57097581  0.20380321  0.77325378     0.14500
H636        H  0.55009399  0.18625028  0.85751873     0.00200
H637        H  0.54410570  0.22278946  0.81794252     0.14800
H638        H  0.57435745  0.21743419  0.87298148     0.14600
O639        O  0.68647942  0.42395478  0.68748188    -0.57900
C640        C  0.66532477  0.42863481  0.61683167     0.74700
O641        O  0.64606855  0.42063831  0.72185657    -0.59100
C642        C  0.68914854  0.42582763  0.71967111     0.74700
C643        C  0.65862167  0.45421834  0.70579131     0.77100
Cd644      Cd  0.66471356  0.42892516  0.69289644     1.37500
O645        O  0.67475445  0.43053356  0.63523716    -0.57900
O646        O  0.65551004  0.44857057  0.67797392    -0.56700
C647        C  0.64817172  0.40953880  0.71503449     0.77000
O648        O  0.66405344  0.44798932  0.72902949    -0.59100
O649        O  0.65558664  0.42676200  0.63369399    -0.57600
O650        O  0.68038349  0.42836444  0.73994013    -0.57500
O651        O  0.65815998  0.40742649  0.70002837    -0.56700
O652        O  0.67775951  0.42870817  0.33503676    -0.57900
C653        C  0.69195405  0.42882889  0.24401270     0.74700
O654        O  0.64757153  0.42402746  0.25782611    -0.59100
C655        C  0.66797520  0.42934098  0.35237759     0.74700
C656        C  0.66335573  0.45791945  0.27034128     0.77100
Cd657      Cd  0.66811196  0.43169803  0.27644437     1.37500
O658        O  0.68295077  0.43266217  0.22645580    -0.57900
O659        O  0.66667861  0.45275141  0.29859131    -0.56700
C660        C  0.64993767  0.41273797  0.25896066     0.77000
O661        O  0.66218844  0.45099405  0.24352140    -0.59100
O662        O  0.68976475  0.42564264  0.27559222    -0.57600
O663        O  0.65841424  0.43083914  0.33446353    -0.57500
O664        O  0.66091502  0.41018992  0.26478449    -0.56700
C665        C  0.77499630  0.44267184  0.79468889     0.86400
C666        C  0.77872942  0.43847094  0.83198649    -0.53900
C667        C  0.78901300  0.44393204  0.84507749     0.09300
C668        C  0.79507663  0.45277437  0.81827724     0.20300
C669        C  0.77472085  0.45664922  0.79705073    -0.54600
C670        C  0.78509241  0.46198176  0.80953884     0.09400
C671        C  0.78616606  0.43999847  0.77146490    -0.54100
C672        C  0.79674839  0.44528926  0.78360731     0.10000
H673        H  0.77300639  0.43250367  0.84788896     0.14500
H674        H  0.80348792  0.45721191  0.82837117     0.00200
H675        H  0.76678032  0.46191342  0.78996969     0.14800
H676        H  0.78591465  0.43435046  0.74788838     0.14600
C677        C  0.77743918  0.44314078  0.16143222     0.86400
C678        C  0.78898217  0.43957712  0.18231409    -0.53900
C679        C  0.79949798  0.44481762  0.16927222     0.09300
C680        C  0.79736031  0.45311290  0.13654140     0.20300
C681        C  0.77767048  0.45710715  0.16215167    -0.54600
C682        C  0.78799564  0.46236580  0.14955228     0.09400
C683        C  0.78028932  0.43967968  0.12294221    -0.54100
C684        C  0.79054933  0.44495479  0.10937023     0.10000
H685        H  0.78895830  0.43358584  0.20514847     0.14500
H686        H  0.80566599  0.45759523  0.12604504     0.00200
H687        H  0.77021991  0.46246657  0.17244409     0.14800
H688        H  0.77417656  0.43406232  0.10707967     0.14600
C689        C  0.78792710  0.42191987  0.99666630    -0.17900
C690        C  0.78763796  0.42180674  0.95957666    -0.20100
C691        C  0.79059141  0.43238760  0.94025027     0.20500
C692        C  0.79416654  0.44310427  0.95848926    -0.03000
C693        C  0.79454008  0.44319045  0.99599988    -0.06100
C694        C  0.79121521  0.43260158  0.01512500     0.20800
C695        C  0.79792336  0.45394298  0.01434021     0.19000
C696        C  0.80100415  0.46449482  0.99501035    -0.17600
C697        C  0.80050987  0.46444831  0.95787371    -0.19800
C698        C  0.79703790  0.45382450  0.93932394     0.20500
C699        C  0.79601057  0.45384133  0.90209305    -0.32800
C700        C  0.79208932  0.44328799  0.88370265     0.01200
C701        C  0.78967416  0.43252422  0.90309992    -0.24100
C702        C  0.79075932  0.43301252  0.05230684    -0.28700
C703        C  0.79354970  0.44387479  0.07085490     0.06800
C704        C  0.79769703  0.45410933  0.05164307    -0.27400
H705        H  0.78537050  0.41369849  0.01093119     0.11600
H706        H  0.78488101  0.41349172  0.94600592     0.12700
H707        H  0.80356052  0.47286160  0.00862748     0.11800
H708        H  0.80271614  0.47277960  0.94366221     0.11000
H709        H  0.79768354  0.46225240  0.88768576     0.16400
H710        H  0.78674862  0.42430591  0.88931346     0.12300
H711        H  0.78783823  0.42495519  0.06678786     0.15200
H712        H  0.80016221  0.46237754  0.06541151     0.14900
C713        C  0.72125696  0.44139056  0.15173164    -0.17900
C714        C  0.73319787  0.44342509  0.14077441    -0.20100
C715        C  0.74293880  0.43953353  0.16175929     0.20500
C716        C  0.74067365  0.43331931  0.19372864    -0.03000
C717        C  0.72857576  0.43130124  0.20491220    -0.06100
C718        C  0.71883756  0.43547362  0.18395206     0.20800
C719        C  0.72624030  0.42543973  0.23748040     0.19000
C720        C  0.73602266  0.42134211  0.25804215    -0.17600
C721        C  0.74800581  0.42331622  0.24690245    -0.19800
C722        C  0.75047320  0.42943749  0.21496327     0.20500
C723        C  0.76251280  0.43202981  0.20437413    -0.32800
C724        C  0.76484580  0.43856308  0.17282376     0.01200
C725        C  0.75488827  0.44207130  0.15166336    -0.24100
C726        C  0.70687583  0.43404311  0.19606635    -0.28700
C727        C  0.70445530  0.42866620  0.22919588     0.06800
C728        C  0.71420604  0.42414568  0.24940078    -0.27400
H729        H  0.71391102  0.44464474  0.13527866     0.11600
H730        H  0.73481788  0.44820362  0.11606528     0.12700
H731        H  0.73441266  0.41677604  0.28308288     0.11800
H732        H  0.75535533  0.42021816  0.26359189     0.11000
H733        H  0.76989888  0.42930349  0.22135383     0.16400
H734        H  0.75648699  0.44721072  0.12752541     0.12300
H735        H  0.69947826  0.43757184  0.18029104     0.15200
H736        H  0.71246771  0.41996200  0.27493825     0.14900
C737        C  0.73122287  0.43895423  0.82150879    -0.17900
C738        C  0.71925693  0.43637476  0.81162052    -0.20100
C739        C  0.71662454  0.43161590  0.77791032     0.20500
C740        C  0.72618087  0.42910365  0.75427540    -0.03000
C741        C  0.73830863  0.43157132  0.76447586    -0.06100
C742        C  0.74077775  0.43669785  0.79799912     0.20800
C743        C  0.74790240  0.42927561  0.74077222     0.19000
C744        C  0.74523644  0.42435053  0.70719374    -0.17600
C745        C  0.73320860  0.42202558  0.69692476    -0.19800
C746        C  0.72359966  0.42450166  0.72011145     0.20500
C747        C  0.71146099  0.42287218  0.70938751    -0.32800
C748        C  0.70187802  0.42575833  0.73248384     0.01200
C749        C  0.70458117  0.42978592  0.76703011    -0.24100
C750        C  0.75271114  0.43980709  0.80719415    -0.28700
C751        C  0.76245429  0.43774589  0.78380517     0.06800
C752        C  0.75992193  0.43226651  0.75063560    -0.27400
H753        H  0.73299354  0.44286288  0.84743455     0.11600
H754        H  0.71203479  0.43835277  0.83008598     0.12700
H755        H  0.75244744  0.42250047  0.68858359     0.11800
H756        H  0.73141373  0.41845450  0.67061281     0.11000
H757        H  0.70948023  0.41974559  0.68270182     0.16400
H758        H  0.69729163  0.43205318  0.78499552     0.12300
H759        H  0.75442951  0.44419021  0.83253495     0.15200
H760        H  0.76708798  0.43074031  0.73177291     0.14900
C761        C  0.68886381  0.42750407  0.46824074    -0.17900
C762        C  0.68847414  0.42761400  0.50527756    -0.20100
C763        C  0.67733512  0.42810268  0.52301553     0.20500
C764        C  0.66646616  0.42841661  0.50330422    -0.03000
C765        C  0.66686168  0.42834050  0.46595432    -0.06100
C766        C  0.67812045  0.42790991  0.44834902     0.20800
C767        C  0.65599788  0.42876676  0.44626245     0.19000
C768        C  0.64485223  0.42917840  0.46399446    -0.17600
C769        C  0.64445788  0.42921144  0.50101980    -0.19800
C770        C  0.65520499  0.42884258  0.52088934     0.20500
C771        C  0.65489163  0.42888530  0.55801761    -0.32800
C772        C  0.66569323  0.42860187  0.57777615     0.01200
C773        C  0.67687682  0.42826957  0.56010879    -0.24100
C774        C  0.67843956  0.42801428  0.41118876    -0.28700
C775        C  0.66764826  0.42860762  0.39144006     0.06800
C776        C  0.65646689  0.42889242  0.40918567    -0.27400
H777        H  0.69757640  0.42715851  0.45514730     0.11600
H778        H  0.69689341  0.42733457  0.52006058     0.12700
H779        H  0.63643444  0.42950674  0.44921424     0.11800
H780        H  0.63574500  0.42954760  0.51411840     0.11000
H781        H  0.64624532  0.42921209  0.57152811     0.16400
H782        H  0.68523238  0.42802309  0.57523830     0.12300
H783        H  0.68708829  0.42780826  0.39767338     0.15200
H784        H  0.64810444  0.42932868  0.39413814     0.14900
C785        C  0.54364069  0.19005966  0.02217136    -0.17900
C786        C  0.54365484  0.18995993  0.98506725    -0.20100
C787        C  0.55414052  0.19325754  0.96621984     0.20500
C788        C  0.56483142  0.19630160  0.98494380    -0.03000
C789        C  0.56481590  0.19640960  0.02241787    -0.06100
C790        C  0.55410861  0.19347338  0.04109990     0.20800
C791        C  0.57535861  0.19998598  0.04111027     0.19000
C792        C  0.58593642  0.20295286  0.02228442    -0.17600
C793        C  0.58595202  0.20284017  0.98519326    -0.19800
C794        C  0.57538973  0.19975518  0.96627114     0.20500
C795        C  0.57506057  0.20056376  0.92912118    -0.32800
C796        C  0.56427450  0.19809026  0.91032806     0.01200
C797        C  0.55395317  0.19410504  0.92909194    -0.24100
C798        C  0.55388420  0.19460939  0.07820664    -0.28700
C799        C  0.56416664  0.19884989  0.09681923     0.06800
C800        C  0.57498238  0.20110570  0.07815158    -0.27400
H801        H  0.53534570  0.18776062  0.03605614     0.11600
H802        H  0.53537152  0.18757728  0.97109808     0.12700
H803        H  0.59412195  0.20567365  0.03624239     0.11800
H804        H  0.59415137  0.20546688  0.97129963     0.11000
H805        H  0.58309035  0.20352186  0.91490932     0.16400
H806        H  0.54552420  0.19237872  0.91511420     0.12300
H807        H  0.54546806  0.19298596  0.09224498     0.15200
H808        H  0.58298112  0.20423426  0.09236294     0.14900
C809        C  0.63601477  0.36606230  0.70728746    -0.17900
C810        C  0.62720169  0.35682719  0.70989646    -0.20100
C811        C  0.61557632  0.35945411  0.72260136     0.20500
C812        C  0.61286972  0.37147159  0.73341596    -0.03000
C813        C  0.62180139  0.38080540  0.73090789    -0.06100
C814        C  0.63337843  0.37808586  0.71744139     0.20800
C815        C  0.61905588  0.39289168  0.74102881     0.19000
C816        C  0.60746958  0.39547412  0.75417598    -0.17600
C817        C  0.59860339  0.38623764  0.75650347    -0.19800
C818        C  0.60115726  0.37423020  0.74581382     0.20500
C819        C  0.59212440  0.36503085  0.74624100    -0.32800
C820        C  0.59466775  0.35309018  0.73452777     0.01200
C821        C  0.60651860  0.35034930  0.72356685    -0.24100
C822        C  0.64203640  0.38746659  0.71355210    -0.28700
C823        C  0.63931441  0.39959569  0.72276928     0.06800
C824        C  0.62784111  0.40220877  0.73700338    -0.27400
H825        H  0.64486123  0.36382324  0.69690731     0.11600
H826        H  0.62942746  0.34765221  0.70144301     0.12700
H827        H  0.60519961  0.40468717  0.76216546     0.11800
H828        H  0.58968267  0.38853033  0.76620257     0.11000
H829        H  0.58303362  0.36725509  0.75468429     0.16400
H830        H  0.60858464  0.34122207  0.71429952     0.12300
H831        H  0.65082391  0.38535190  0.70250010     0.15200
H832        H  0.62563575  0.41153192  0.74407250     0.14900
C833        C  0.56423440  0.27142894  0.83367736    -0.17900
C834        C  0.56380899  0.25929272  0.84517034    -0.20100
C835        C  0.56658509  0.24972376  0.82183683     0.20500
C836        C  0.57002338  0.25236743  0.78676670    -0.03000
C837        C  0.57044505  0.26465584  0.77510861    -0.06100
C838        C  0.56744652  0.27420843  0.79865457     0.20800
C839        C  0.57356630  0.26735469  0.73974702     0.19000
C840        C  0.57641577  0.25775102  0.71653866    -0.17600
C841        C  0.57595272  0.24556672  0.72808110    -0.19800
C842        C  0.57265201  0.24273535  0.76308641     0.20500
C843        C  0.57145493  0.23047313  0.77440284    -0.32800
C844        C  0.56755232  0.22774812  0.80913979     0.01200
C845        C  0.56546189  0.23754858  0.83269811    -0.24100
C846        C  0.56745544  0.28634972  0.78665642    -0.28700
C847        C  0.57034985  0.28912950  0.75131560     0.06800
C848        C  0.57352779  0.27957144  0.72808832    -0.27400
H849        H  0.56189819  0.27863619  0.85208456     0.11600
H850        H  0.56111956  0.25737533  0.87221571     0.12700
H851        H  0.57884496  0.25965058  0.68927608     0.11800
H852        H  0.57800380  0.23834093  0.70944039     0.11000
H853        H  0.57293638  0.22320958  0.75551824     0.16400
H854        H  0.56222046  0.23565510  0.85925706     0.12300
H855        H  0.56494824  0.29361552  0.80468811     0.15200
H856        H  0.57574149  0.28160535  0.70073494     0.14900
C857        C  0.63744428  0.36906407  0.24859607    -0.17900
C858        C  0.62849908  0.35989076  0.25051011    -0.20100
C859        C  0.61631744  0.36289276  0.25618718     0.20500
C860        C  0.61310846  0.37530782  0.25924665    -0.03000
C861        C  0.62214774  0.38459057  0.25711450    -0.06100
C862        C  0.63439543  0.38144152  0.25217293     0.20800
C863        C  0.61895428  0.39699339  0.26064511     0.19000
C864        C  0.60676003  0.40000361  0.26604006    -0.17600
C865        C  0.59783583  0.39082785  0.26830207    -0.19800
C866        C  0.60090940  0.37844729  0.26511525     0.20500
C867        C  0.59204072  0.36916586  0.26839005    -0.32800
C868        C  0.59517346  0.35672707  0.26611388     0.01200
C869        C  0.60734925  0.35370173  0.25958634    -0.24100
C870        C  0.64339469  0.39068525  0.25166172    -0.28700
C871        C  0.64032408  0.40309107  0.25563041     0.06800
C872        C  0.62802402  0.40614404  0.25954430    -0.27400
H873        H  0.64678518  0.36645860  0.24466367     0.11600
H874        H  0.63114255  0.35041798  0.24799449     0.12700
H875        H  0.60413138  0.40946931  0.26889891     0.11800
H876        H  0.58852383  0.39342089  0.27284902     0.11000
H877        H  0.58272955  0.37163517  0.27357678     0.16400
H878        H  0.60989961  0.34417708  0.25784711     0.12300
H879        H  0.65281885  0.38820270  0.24876355     0.15200
H880        H  0.62553883  0.41563142  0.26302007     0.14900
C881        C  0.56259661  0.27356422  0.17127287    -0.17900
C882        C  0.56157156  0.26139075  0.16026923    -0.20100
C883        C  0.56592436  0.25192695  0.18174200     0.20500
C884        C  0.57160292  0.25473012  0.21424355    -0.03000
C885        C  0.57268016  0.26705479  0.22533876    -0.06100
C886        C  0.56802459  0.27648606  0.20388799     0.20800
C887        C  0.57806992  0.26990215  0.25830166     0.19000
C888        C  0.58262172  0.26041278  0.27940299    -0.17600
C889        C  0.58152105  0.24819364  0.26843030    -0.19800
C890        C  0.57585806  0.24521745  0.23612097     0.20500
C891        C  0.57397590  0.23292148  0.22595803    -0.32800
C892        C  0.56780901  0.23002926  0.19415407     0.01200
C893        C  0.56425058  0.23969901  0.17179891    -0.24100
C894        C  0.56853134  0.28863588  0.21582509    -0.28700
C895        C  0.57350228  0.29154220  0.24916168     0.06800
C896        C  0.57846825  0.28213051  0.26999415    -0.27400
H897        H  0.55897115  0.28068559  0.15449730     0.11600
H898        H  0.55716147  0.25935950  0.13522487     0.12700
H899        H  0.58683827  0.26242183  0.30473704     0.11800
H900        H  0.58490099  0.24104992  0.28556440     0.11000
H901        H  0.57694011  0.22578204  0.24359261     0.16400
H902        H  0.55953869  0.23763867  0.14721081     0.12300
H903        H  0.56465352  0.29578601  0.19962967     0.15200
H904        H  0.58231923  0.28426502  0.29575039     0.14900
C905        C  0.57620432  0.34650682  0.52162325    -0.17900
C906        C  0.57659897  0.34662839  0.48465354    -0.20100
C907        C  0.57438320  0.33587685  0.46530995     0.20500
C908        C  0.57193038  0.32482900  0.48333509    -0.03000
C909        C  0.57158474  0.32469507  0.52071616    -0.06100
C910        C  0.57362565  0.33562388  0.53983557     0.20800
C911        C  0.56899694  0.31370375  0.53890097     0.19000
C912        C  0.56695603  0.30290832  0.51947961    -0.17600
C913        C  0.56723852  0.30305411  0.48235737    -0.19800
C914        C  0.56961000  0.31398912  0.46402314     0.20500
C915        C  0.56948755  0.31435353  0.42677985    -0.32800
C916        C  0.57171059  0.32541664  0.40872879     0.01200
C917        C  0.57434262  0.33606911  0.42823720    -0.24100
C918        C  0.57286283  0.33556061  0.57682298    -0.28700
C919        C  0.57005554  0.32473624  0.59517534     0.06800
C920        C  0.56829266  0.31378001  0.57609463    -0.27400
H921        H  0.57780941  0.35495970  0.53597827     0.11600
H922        H  0.57849952  0.35517452  0.47116152     0.12700
H923        H  0.56499395  0.29437871  0.53298709     0.11800
H924        H  0.56548325  0.29463536  0.46797855     0.11000
H925        H  0.56749600  0.30608597  0.41189578     0.16400
H926        H  0.57606650  0.34462371  0.41456162     0.12300
H927        H  0.57429398  0.34402207  0.59131531     0.15200
H928        H  0.56616596  0.30538022  0.59009769     0.14900
C929        C  0.50622489  0.18157546  0.82539582    -0.17900
C930        C  0.49353448  0.18150108  0.82493185    -0.20100
C931        C  0.48709291  0.19181443  0.83607350     0.20500
C932        C  0.49351136  0.20218276  0.84870197    -0.03000
C933        C  0.50628181  0.20224176  0.84928398    -0.06100
C934        C  0.51268615  0.19195579  0.83706440     0.20800
C935        C  0.51263245  0.21276130  0.86100843     0.19000
C936        C  0.50623666  0.22295116  0.87308065    -0.17600
C937        C  0.49359888  0.22289913  0.87245321    -0.19800
C938        C  0.48718429  0.21265027  0.85979921     0.20500
C939        C  0.47456340  0.21283023  0.85720566    -0.32800
C940        C  0.46812931  0.20272039  0.84359202     0.01200
C941        C  0.47438570  0.19210697  0.83391464    -0.24100
C942        C  0.52539780  0.19244918  0.83543681    -0.28700
C943        C  0.53166257  0.20317001  0.84532926     0.06800
C944        C  0.52526053  0.21310687  0.85919597    -0.27400
H945        H  0.51098786  0.17359480  0.81600138     0.11600
H946        H  0.48876031  0.17345547  0.81524356     0.12700
H947        H  0.51101339  0.23106630  0.88227600     0.11800
H948        H  0.48884290  0.23096784  0.88123196     0.11000
H949        H  0.46971904  0.22091689  0.86547745     0.16400
H950        H  0.46941046  0.18429140  0.82347361     0.12300
H951        H  0.53035010  0.18477982  0.82474074     0.15200
H952        H  0.53012333  0.22128382  0.86758942     0.14900
C953        C  0.50746958  0.18144734  0.18688657    -0.17900
C954        C  0.49479745  0.18071318  0.18749321    -0.20100
C955        C  0.48779697  0.19061237  0.17609079     0.20500
C956        C  0.49363387  0.20123753  0.16311195    -0.03000
C957        C  0.50639777  0.20196498  0.16238936    -0.06100
C958        C  0.51336255  0.19207644  0.17474612     0.20800
C959        C  0.51217483  0.21272542  0.15020208     0.19000
C960        C  0.50520606  0.22250283  0.13790394    -0.17600
C961        C  0.49257150  0.22177927  0.13863760    -0.19800
C962        C  0.48672343  0.21127515  0.15171990     0.20500
C963        C  0.47410163  0.21080896  0.15468013    -0.32800
C964        C  0.46822672  0.20049725  0.16916991     0.01200
C965        C  0.47509930  0.19025316  0.17852514    -0.24100
C966        C  0.52605942  0.19315206  0.17570574    -0.28700
C967        C  0.53179433  0.20404945  0.16493555     0.06800
C968        C  0.52480925  0.21366542  0.15142525    -0.27400
H969        H  0.51266313  0.17376684  0.19642139     0.11600
H970        H  0.49046917  0.17247996  0.19751199     0.12700
H971        H  0.50952883  0.23080091  0.12832466     0.11800
H972        H  0.48737374  0.22953402  0.12963042     0.11000
H973        H  0.46883237  0.21860610  0.14631711     0.16400
H974        H  0.47067302  0.18221220  0.18908516     0.12300
H975        H  0.53142841  0.18574882  0.18625301     0.15200
H976        H  0.52922555  0.22200099  0.14243069     0.14900
C977        C  0.45898836  0.19069389  0.98871907    -0.17900
C978        C  0.45898653  0.19001221  0.02576890    -0.20100
C979        C  0.44809384  0.19079860  0.04471695     0.20500
C980        C  0.43705511  0.19193258  0.02606304    -0.03000
C981        C  0.43706276  0.19268129  0.98870976    -0.06100
C982        C  0.44810222  0.19220282  0.96999790     0.20800
C983        C  0.42607750  0.19443716  0.97023482     0.19000
C984        C  0.41515741  0.19491725  0.98907884    -0.17600
C985        C  0.41514532  0.19413883  0.02605593    -0.19800
C986        C  0.42605661  0.19290722  0.04478409     0.20500
C987        C  0.42622290  0.19332343  0.08189060    -0.32800
C988        C  0.43723708  0.19291829  0.10055212     0.01200
C989        C  0.44809569  0.19116248  0.08193967    -0.24100
C990        C  0.44810090  0.19374084  0.93307877    -0.28700
C991        C  0.43724975  0.19604082  0.91481881     0.06800
C992        C  0.42625391  0.19615190  0.93342141    -0.27400
H993        H  0.46754044  0.19032384  0.97474855     0.11600
H994        H  0.46753891  0.18915845  0.03964817     0.12700
H995        H  0.40664769  0.19618903  0.97527076     0.11800
H996        H  0.40662807  0.19485176  0.04007234     0.11000
H997        H  0.41784502  0.19462968  0.09627887     0.16400
H998        H  0.45662103  0.19099857  0.09624821     0.12300
H999        H  0.45661805  0.19382367  0.91883105     0.15200
H1000       H  0.41788277  0.19787886  0.91928889     0.14900
C1001       C  0.50318405  0.33106957  0.21624502    -0.17900
C1002       C  0.49046246  0.33021309  0.21596790    -0.20100
C1003       C  0.48384737  0.33069535  0.24775308     0.20500
C1004       C  0.49020374  0.33222890  0.28002642    -0.03000
C1005       C  0.50302515  0.33310556  0.28030463    -0.06100
C1006       C  0.50958902  0.33241842  0.24831295     0.20800
C1007       C  0.50926955  0.33444150  0.31277549     0.19000
C1008       C  0.50273013  0.33500878  0.34453244    -0.17600
C1009       C  0.49010402  0.33413273  0.34426073    -0.19800
C1010       C  0.48377334  0.33270225  0.31222094     0.20500
C1011       C  0.47112471  0.33158588  0.31209799    -0.32800
C1012       C  0.46459941  0.32989684  0.28032171     0.01200
C1013       C  0.47105225  0.32952223  0.24804684    -0.24100
C1014       C  0.52240165  0.33277520  0.24918345    -0.28700
C1015       C  0.52867570  0.33377973  0.28174660     0.06800
C1016       C  0.52195832  0.33486804  0.31321388    -0.27400
H1017       H  0.50802270  0.33054217  0.19135508     0.11600
H1018       H  0.48580208  0.32906607  0.19086371     0.12700
H1019       H  0.50739590  0.33600282  0.36968894     0.11800
H1020       H  0.48528354  0.33448924  0.36921370     0.11000
H1021       H  0.46635072  0.33185162  0.33715424     0.16400
H1022       H  0.46616793  0.32817268  0.22337975     0.12300
H1023       H  0.52746067  0.33192283  0.22474517     0.15200
H1024       H  0.52662530  0.33566186  0.33844228     0.14900
C1025       C  0.41727985  0.26477357  0.17966895    -0.17900
C1026       C  0.41868217  0.25267639  0.16829354    -0.20100
C1027       C  0.42346370  0.24381186  0.19119878     0.20500
C1028       C  0.42665441  0.24714763  0.22609446    -0.03000
C1029       C  0.42527942  0.25938003  0.23756847    -0.06100
C1030       C  0.42068627  0.26826485  0.21411504     0.20800
C1031       C  0.42880570  0.26277271  0.27219116     0.19000
C1032       C  0.43348272  0.25390204  0.29518138    -0.17600
C1033       C  0.43487652  0.24181822  0.28376673    -0.19800
C1034       C  0.43157932  0.23836671  0.24919501     0.20500
C1035       C  0.43354699  0.22640839  0.23701009    -0.32800
C1036       C  0.43080486  0.22297816  0.20180437     0.01200
C1037       C  0.42551174  0.23181555  0.17931687    -0.24100
C1038       C  0.41989754  0.28052415  0.22518629    -0.28700
C1039       C  0.42369093  0.28403112  0.25939461     0.06800
C1040       C  0.42790668  0.27502598  0.28292996    -0.27400
H1041       H  0.41371387  0.27144739  0.16130250     0.11600
H1042       H  0.41618131  0.25029310  0.14135105     0.12700
H1043       H  0.43624232  0.25635133  0.32186041     0.11800
H1044       H  0.43869823  0.23520193  0.30185859     0.11000
H1045       H  0.43782467  0.21986874  0.25446923     0.16400
H1046       H  0.42349807  0.22980782  0.15196771     0.12300
H1047       H  0.41657507  0.28736899  0.20693636     0.15200
H1048       H  0.43083451  0.27760646  0.30937141     0.14900
C1049       C  0.48818606  0.33219980  0.65569538    -0.17900
C1050       C  0.50082248  0.33290400  0.65565436    -0.20100
C1051       C  0.50729228  0.33333736  0.68767097     0.20500
C1052       C  0.50096876  0.33333210  0.72011501    -0.03000
C1053       C  0.48814212  0.33272934  0.72014973    -0.06100
C1054       C  0.48178100  0.33199851  0.68774721     0.20800
C1055       C  0.48171181  0.33257234  0.75246964     0.19000
C1056       C  0.48824660  0.33322581  0.78447812    -0.17600
C1057       C  0.50097663  0.33370599  0.78444911    -0.19800
C1058       C  0.50745614  0.33361835  0.75240872     0.20500
C1059       C  0.52026028  0.33347645  0.75196415    -0.32800
C1060       C  0.52660104  0.33316235  0.71953775     0.01200
C1061       C  0.51998203  0.33340455  0.68763184    -0.24100
C1062       C  0.46913668  0.33081170  0.68777200    -0.28700
C1063       C  0.46257486  0.33035598  0.71967922     0.06800
C1064       C  0.46892609  0.33147706  0.75207329    -0.27400
H1065       H  0.48341903  0.33167190  0.63059309     0.11600
H1066       H  0.50555098  0.33289924  0.63052336     0.12700
H1067       H  0.48351756  0.33316294  0.80960078     0.11800
H1068       H  0.50575973  0.33398961  0.80954807     0.11000
H1069       H  0.52525371  0.33333033  0.77672225     0.16400
H1070       H  0.52471148  0.33316517  0.66249646     0.12300
H1071       H  0.46438943  0.33005431  0.66266237     0.15200
H1072       H  0.46398374  0.33113136  0.77683696     0.14900
C1073       C  0.41586940  0.24177958  0.73918160    -0.17900
C1074       C  0.41384032  0.25375663  0.72753895    -0.20100
C1075       C  0.41739173  0.26380967  0.74848774     0.20500
C1076       C  0.42265945  0.26175071  0.78201575    -0.03000
C1077       C  0.42471376  0.24967088  0.79372487    -0.06100
C1078       C  0.42148671  0.23962054  0.77200365     0.20800
C1079       C  0.43041016  0.24769103  0.82661390     0.19000
C1080       C  0.43364010  0.25769644  0.84808454    -0.17600
C1081       C  0.43157895  0.26963294  0.83657662    -0.19800
C1082       C  0.42628561  0.27176277  0.80336142     0.20500
C1083       C  0.42499829  0.28372213  0.79062734    -0.32800
C1084       C  0.42028936  0.28586354  0.75657916     0.01200
C1085       C  0.41620007  0.27585864  0.73601280    -0.24100
C1086       C  0.42432436  0.22765251  0.78288052    -0.28700
C1087       C  0.43047872  0.22563012  0.81517370     0.06800
C1088       C  0.43320908  0.23578240  0.83700200    -0.27400
H1089       H  0.41326767  0.23420556  0.72215555     0.11600
H1090       H  0.40972184  0.25515699  0.70178930     0.12700
H1091       H  0.43798833  0.25629625  0.87351423     0.11800
H1092       H  0.43437656  0.27720943  0.85333740     0.11000
H1093       H  0.42813324  0.29134883  0.80671400     0.16400
H1094       H  0.41249988  0.27741360  0.70978668     0.12300
H1095       H  0.42217554  0.22013420  0.76531337     0.15200
H1096       H  0.43802823  0.23440957  0.86173797     0.14900
C1097       C  0.41370848  0.30243459  0.48203006    -0.17900
C1098       C  0.41380701  0.30226747  0.51909705    -0.20100
C1099       C  0.41677388  0.31287787  0.53833833     0.20500
C1100       C  0.41951705  0.32381215  0.52004733    -0.03000
C1101       C  0.41949024  0.32396200  0.48262980    -0.06100
C1102       C  0.41662409  0.31320074  0.46357301     0.20800
C1103       C  0.42252912  0.33481685  0.46432786     0.19000
C1104       C  0.42531502  0.34547542  0.48358108    -0.17600
C1105       C  0.42525752  0.34534938  0.52065630    -0.19800
C1106       C  0.42246862  0.33454963  0.53911054     0.20500
C1107       C  0.42275431  0.33426032  0.57626176    -0.32800
C1108       C  0.42026672  0.32334336  0.59466583     0.01200
C1109       C  0.41719870  0.31270652  0.57550736    -0.24100
C1110       C  0.41695549  0.31332199  0.42642168    -0.28700
C1111       C  0.42029324  0.32400811  0.40799491     0.06800
C1112       C  0.42294066  0.33476177  0.42714291    -0.27400
H1113       H  0.41148233  0.29409742  0.46778192     0.11600
H1114       H  0.41164836  0.29380722  0.53272083     0.12700
H1115       H  0.42763693  0.35389299  0.46995892     0.11800
H1116       H  0.42752597  0.35367477  0.53490859     0.11000
H1117       H  0.42512917  0.34249721  0.59082874     0.16400
H1118       H  0.41521887  0.30426935  0.58950246     0.12300
H1119       H  0.41492364  0.30499076  0.41187980     0.15200
H1120       H  0.42548568  0.34304563  0.41313744     0.14900
C1121       C  0.18236916  0.43743983  0.98644631    -0.17900
C1122       C  0.18290471  0.43736045  0.02346484    -0.20100
C1123       C  0.18722143  0.42708229  0.04156256     0.20500
C1124       C  0.19065710  0.41662247  0.02225581    -0.03000
C1125       C  0.19004526  0.41667647  0.98490446    -0.06100
C1126       C  0.18609484  0.42722327  0.96694440     0.20800
C1127       C  0.19389286  0.40638757  0.96553345     0.19000
C1128       C  0.19796320  0.39600810  0.98365620    -0.17600
C1129       C  0.19862957  0.39597725  0.02067795    -0.19800
C1130       C  0.19518757  0.40630611  0.04016162     0.20500
C1131       C  0.19664438  0.40668617  0.07707603    -0.32800
C1132       C  0.19369520  0.41726827  0.09629704     0.01200
C1133       C  0.18867193  0.42729433  0.07846765    -0.24100
C1134       C  0.18654842  0.42762281  0.92986030    -0.28700
C1135       C  0.19098473  0.41765150  0.91044483     0.06800
C1136       C  0.19417257  0.40688241  0.92842856    -0.27400
H1137       H  0.17930248  0.44560245  0.97303861     0.11600
H1138       H  0.18022331  0.44545695  0.03791242     0.12700
H1139       H  0.20093944  0.38803088  0.96916188     0.11800
H1140       H  0.20209250  0.38797144  0.03403414     0.11000
H1141       H  0.20040607  0.39888155  0.09075547     0.16400
H1142       H  0.18656565  0.43556073  0.09295947     0.12300
H1143       H  0.18424404  0.43603739  0.91644714     0.15200
H1144       H  0.19741776  0.39907971  0.91363420     0.14900
C1145       C  0.35986367  0.34841717  0.72034637    -0.17900
C1146       C  0.35039011  0.35677042  0.72285392    -0.20100
C1147       C  0.35254331  0.36865271  0.73566552     0.20500
C1148       C  0.36429439  0.37205630  0.74697074    -0.03000
C1149       C  0.37386724  0.36359293  0.74455743    -0.06100
C1150       C  0.37165731  0.35177099  0.73078302     0.20800
C1151       C  0.38569615  0.36707411  0.75500680     0.19000
C1152       C  0.38777010  0.37887302  0.76861245    -0.17600
C1153       C  0.37830241  0.38726987  0.77085953    -0.19800
C1154       C  0.36656766  0.38402888  0.75957233     0.20500
C1155       C  0.35719971  0.39266960  0.75925976    -0.32800
C1156       C  0.34558943  0.38947758  0.74645103     0.01200
C1157       C  0.34326374  0.37732232  0.73590084    -0.24100
C1158       C  0.38130919  0.34359736  0.72700661    -0.28700
C1159       C  0.39320309  0.34706770  0.73663924     0.06800
C1160       C  0.39527721  0.35880256  0.75097108    -0.27400
H1161       H  0.35799238  0.33937445  0.70977575     0.11600
H1162       H  0.34141526  0.35400894  0.71408019     0.12700
H1163       H  0.39677489  0.38168663  0.77695950     0.11800
H1164       H  0.38021732  0.39638806  0.78079730     0.11000
H1165       H  0.35908235  0.40199068  0.76757252     0.16400
H1166       H  0.33436250  0.37474329  0.72605461     0.12300
H1167       H  0.37959104  0.33461213  0.71578972     0.15200
H1168       H  0.40438657  0.36157985  0.75843073     0.14900
C1169       C  0.25033523  0.41184042  0.71495898    -0.17900
C1170       C  0.23825050  0.41252473  0.72597213    -0.20100
C1171       C  0.23540312  0.41347224  0.76211938     0.20500
C1172       C  0.24486570  0.41344464  0.78738096    -0.03000
C1173       C  0.25706321  0.41267252  0.77630043    -0.06100
C1174       C  0.25980716  0.41205390  0.73988036     0.20800
C1175       C  0.26651639  0.41293664  0.80161803     0.19000
C1176       C  0.26368096  0.41373461  0.83776138    -0.17600
C1177       C  0.25163238  0.41469751  0.84865790    -0.19800
C1178       C  0.24219806  0.41471619  0.82363701     0.20500
C1179       C  0.23020190  0.41644032  0.83427699    -0.32800
C1180       C  0.22056128  0.41639139  0.80956062     0.01200
C1181       C  0.22332640  0.41488435  0.77331625    -0.24100
C1182       C  0.27196680  0.41204637  0.72898350    -0.28700
C1183       C  0.28145547  0.41267131  0.75399985     0.06800
C1184       C  0.27863504  0.41282459  0.79032978    -0.27400
H1185       H  0.25228213  0.41133996  0.68686758     0.11600
H1186       H  0.23113729  0.41253366  0.70613867     0.12700
H1187       H  0.27080156  0.41390786  0.85757508     0.11800
H1188       H  0.24970200  0.41559820  0.87667800     0.11000
H1189       H  0.22845083  0.41827780  0.86199404     0.16400
H1190       H  0.21624740  0.41543427  0.75353900     0.12300
H1191       H  0.27403628  0.41185686  0.70092141     0.15200
H1192       H  0.28586353  0.41328417  0.80979969     0.14900
C1193       C  0.36186373  0.34790342  0.27834755    -0.17900
C1194       C  0.35252059  0.35645553  0.27893279    -0.20100
C1195       C  0.35485058  0.36876136  0.27057918     0.20500
C1196       C  0.36665044  0.37242842  0.26063491    -0.03000
C1197       C  0.37610063  0.36377792  0.26004248    -0.06100
C1198       C  0.37371878  0.35149478  0.26939512     0.20800
C1199       C  0.38799322  0.36750759  0.25121506     0.19000
C1200       C  0.39024610  0.37976697  0.24207259    -0.17600
C1201       C  0.38089506  0.38832841  0.24266342    -0.19800
C1202       C  0.36909713  0.38480178  0.25239158     0.20500
C1203       C  0.35981470  0.39348108  0.25518274    -0.32800
C1204       C  0.34812481  0.38995581  0.26636312     0.01200
C1205       C  0.34567991  0.37751409  0.27317931    -0.24100
C1206       C  0.38329224  0.34312079  0.27083283    -0.28700
C1207       C  0.39528873  0.34686210  0.26346258     0.06800
C1208       C  0.39748914  0.35903166  0.25287716    -0.27400
H1209       H  0.35985461  0.33851138  0.28554087     0.11600
H1210       H  0.34350460  0.35348023  0.28656123     0.12700
H1211       H  0.39930641  0.38279356  0.23509888     0.11800
H1212       H  0.38294781  0.39776894  0.23613141     0.11000
H1213       H  0.36180878  0.40303306  0.24990984     0.16400
H1214       H  0.33671980  0.37468084  0.28178325     0.12300
H1215       H  0.38145756  0.33379074  0.27905894     0.15200
H1216       H  0.40666489  0.36202701  0.24713336     0.14900
C1217       C  0.24167078  0.40196699  0.27077839    -0.17900
C1218       C  0.25372436  0.40146040  0.28243862    -0.20100
C1219       C  0.26308723  0.40679488  0.26237602     0.20500
C1220       C  0.26029570  0.41241487  0.22978192    -0.03000
C1221       C  0.24813620  0.41290226  0.21800120    -0.06100
C1222       C  0.23873505  0.40780804  0.23879684     0.20800
C1223       C  0.24537531  0.41878413  0.18586351     0.19000
C1224       C  0.25472279  0.42393251  0.16541721    -0.17600
C1225       C  0.26673634  0.42346587  0.17706378    -0.19800
C1226       C  0.26961024  0.41782707  0.20933737     0.20500
C1227       C  0.28159122  0.41777514  0.22186852    -0.32800
C1228       C  0.28442872  0.41250861  0.25481875     0.01200
C1229       C  0.27513202  0.40687421  0.27469152    -0.24100
C1230       C  0.22657240  0.40898754  0.22784217    -0.28700
C1231       C  0.22370374  0.41528057  0.19631749     0.06800
C1232       C  0.23328948  0.41980148  0.17519311    -0.27400
H1233       H  0.23461666  0.39795436  0.28709577     0.11600
H1234       H  0.25570035  0.39705549  0.30746604     0.12700
H1235       H  0.25271890  0.42849667  0.14064368     0.11800
H1236       H  0.27376583  0.42766388  0.16103616     0.11000
H1237       H  0.28866130  0.42215837  0.20638024     0.16400
H1238       H  0.27722694  0.40276032  0.30006696     0.12300
H1239       H  0.21949192  0.40536274  0.24462514     0.15200
H1240       H  0.23124561  0.42465976  0.15089282     0.14900
C1241       C  0.30146022  0.40316983  0.52528123    -0.17900
C1242       C  0.30154558  0.40336417  0.48818079    -0.20100
C1243       C  0.31134289  0.40860409  0.46979911     0.20500
C1244       C  0.32124767  0.41351714  0.48901830    -0.03000
C1245       C  0.32116718  0.41330939  0.52646601    -0.06100
C1246       C  0.31117704  0.40819978  0.54467739     0.20800
C1247       C  0.33100334  0.41837215  0.54564561     0.19000
C1248       C  0.34089375  0.42342844  0.52727790    -0.17600
C1249       C  0.34097526  0.42363085  0.49021093    -0.19800
C1250       C  0.33116576  0.41878439  0.47085961     0.20500
C1251       C  0.33104758  0.41924706  0.43370424    -0.32800
C1252       C  0.32112449  0.41455687  0.41433171     0.01200
C1253       C  0.31134729  0.40914813  0.43259535    -0.24100
C1254       C  0.31099956  0.40837430  0.58191626    -0.28700
C1255       C  0.32067738  0.41360918  0.60122712     0.06800
C1256       C  0.33070481  0.41846226  0.58282865    -0.27400
H1257       H  0.29373480  0.39917507  0.53881898     0.11600
H1258       H  0.29388770  0.39950986  0.47385738     0.12700
H1259       H  0.34853069  0.42732801  0.54159694     0.11800
H1260       H  0.34867541  0.42767695  0.47667104     0.11000
H1261       H  0.33864465  0.42338981  0.41988174     0.16400
H1262       H  0.30369301  0.40545270  0.41788745     0.12300
H1263       H  0.30324266  0.40459802  0.59583865     0.15200
H1264       H  0.33821034  0.42250659  0.59743603     0.14900
C1265       C  0.39574065  0.79052427  0.98072079    -0.17900
C1266       C  0.39553623  0.78995176  0.01777405    -0.20100
C1267       C  0.40632510  0.79094843  0.03737028     0.20500
C1268       C  0.41740228  0.79286340  0.01945863    -0.03000
C1269       C  0.41761361  0.79339986  0.98206046    -0.06100
C1270       C  0.40674341  0.79205550  0.96261398     0.20800
C1271       C  0.42874798  0.79483766  0.96412998     0.19000
C1272       C  0.43952697  0.79594660  0.98371033    -0.17600
C1273       C  0.43931427  0.79545880  0.02074741    -0.19800
C1274       C  0.42831892  0.79384630  0.03883535     0.20500
C1275       C  0.42809707  0.79282364  0.07587326    -0.32800
C1276       C  0.41715545  0.79053702  0.09379700     0.01200
C1277       C  0.40628638  0.78970945  0.07443309    -0.24100
C1278       C  0.40713598  0.79171907  0.92545050    -0.28700
C1279       C  0.41826374  0.79261054  0.90749888     0.06800
C1280       C  0.42897773  0.79456963  0.92696695    -0.27400
H1281       H  0.38731260  0.78950369  0.96618726     0.11600
H1282       H  0.38695333  0.78852657  0.03108556     0.12700
H1283       H  0.44815264  0.79699038  0.97034993     0.11800
H1284       H  0.44777961  0.79616029  0.03524202     0.11000
H1285       H  0.43653449  0.79321554  0.09059726     0.16400
H1286       H  0.39785664  0.78787547  0.08821337     0.12300
H1287       H  0.39884638  0.79026298  0.91049618     0.15200
H1288       H  0.43760149  0.79506120  0.91333812     0.14900
C1289       C  0.41365203  0.74599715  0.71904592    -0.17900
C1290       C  0.41275068  0.73385312  0.70736962    -0.20100
C1291       C  0.41017205  0.72437258  0.73137219     0.20500
C1292       C  0.40815983  0.72719904  0.76732368    -0.03000
C1293       C  0.40894938  0.73948713  0.77902084    -0.06100
C1294       C  0.41189527  0.74891215  0.75490558     0.20800
C1295       C  0.40738120  0.74223871  0.81514658     0.19000
C1296       C  0.40465970  0.73278806  0.83912339    -0.17600
C1297       C  0.40386102  0.72064360  0.82757355    -0.19800
C1298       C  0.40580300  0.71771273  0.79184219     0.20500
C1299       C  0.40582628  0.70545509  0.78044792    -0.32800
C1300       C  0.40809722  0.70254031  0.74476521     0.01200
C1301       C  0.40998105  0.71209742  0.72027825    -0.24100
C1302       C  0.41359099  0.76096847  0.76729736    -0.28700
C1303       C  0.41233085  0.76384281  0.80358563     0.06800
C1304       C  0.40918195  0.75426204  0.82714296    -0.27400
H1305       H  0.41592859  0.75308908  0.70009822     0.11600
H1306       H  0.41432918  0.73184610  0.67964656     0.12700
H1307       H  0.40339533  0.73475986  0.86701328     0.11800
H1308       H  0.40197925  0.71351174  0.84675657     0.11000
H1309       H  0.40431901  0.69817914  0.79947188     0.16400
H1310       H  0.41177793  0.70996431  0.69273760     0.12300
H1311       H  0.41658435  0.76798398  0.74895663     0.15200
H1312       H  0.40893645  0.75579499  0.85539329     0.14900
C1313       C  0.40604006  0.74326310  0.27730731    -0.17900
C1314       C  0.40459390  0.73113598  0.28865761    -0.20100
C1315       C  0.40540534  0.72141491  0.26444466     0.20500
C1316       C  0.40746038  0.72397730  0.22830767    -0.03000
C1317       C  0.40900659  0.73622692  0.21690376    -0.06100
C1318       C  0.40836477  0.74592005  0.24152768     0.20800
C1319       C  0.41162412  0.73872156  0.18110241     0.19000
C1320       C  0.41226167  0.72903145  0.15675023    -0.17600
C1321       C  0.41055835  0.71693622  0.16790508    -0.19800
C1322       C  0.40833045  0.71429036  0.20370066     0.20500
C1323       C  0.40735476  0.70212506  0.21544481    -0.32800
C1324       C  0.40573324  0.69945433  0.25162280     0.01200
C1325       C  0.40455955  0.70918715  0.27586756    -0.24100
C1326       C  0.41041164  0.75804663  0.23021455    -0.28700
C1327       C  0.41319036  0.76067795  0.19446084     0.06800
C1328       C  0.41390401  0.75080833  0.17036911    -0.27400
H1329       H  0.40551838  0.75056452  0.29665974     0.11600
H1330       H  0.40300047  0.72935330  0.31650717     0.12700
H1331       H  0.41421010  0.73079810  0.12908384     0.11800
H1332       H  0.41123204  0.70962663  0.14862318     0.11000
H1333       H  0.40829758  0.69472531  0.19654356     0.16400
H1334       H  0.40329672  0.70725207  0.30379097    -0.06100
H1335       H  0.41039118  0.76525873  0.24980790     0.15200
H1336       H  0.41657287  0.75249448  0.14318421     0.14900
C1337       C  0.38866245  0.66251952  0.48230818    -0.17900
C1338       C  0.38899087  0.66330622  0.51930666    -0.20100
C1339       C  0.40008431  0.66456780  0.53724374     0.20500
C1340       C  0.41096416  0.66506844  0.51770181    -0.03000
C1341       C  0.41063969  0.66417491  0.48038052    -0.06100
C1342       C  0.39942559  0.66293674  0.46261498     0.20800
C1343       C  0.42152964  0.66451228  0.46088212     0.19000
C1344       C  0.43262397  0.66583032  0.47880167    -0.17600
C1345       C  0.43293967  0.66680110  0.51576142    -0.19800
C1346       C  0.42217143  0.66638520  0.53543759     0.20500
C1347       C  0.42242906  0.66707751  0.57254827    -0.32800
C1348       C  0.41164230  0.66630310  0.59225227     0.01200
C1349       C  0.40049586  0.66517731  0.57437469    -0.24100
C1350       C  0.39916450  0.66220093  0.42548436    -0.28700
C1351       C  0.40997567  0.66258194  0.40587045     0.06800
C1352       C  0.42112977  0.66361654  0.42380906    -0.27400
H1353       H  0.37998058  0.66156261  0.46908736     0.11600
H1354       H  0.38055805  0.66290641  0.53390961     0.12700
H1355       H  0.44106398  0.66613105  0.46421694     0.11800
H1356       H  0.44161852  0.66780265  0.52898004     0.11000
H1357       H  0.43106278  0.66795365  0.58611724     0.16400
H1358       H  0.39214529  0.66461373  0.58936740     0.12300
H1359       H  0.39054202  0.66134001  0.41185184     0.15200
H1360       H  0.42950491  0.66392592  0.40887845     0.14900
C1361       C  0.17260771  0.47634736  0.83831683    -0.17900
C1362       C  0.17229324  0.48917808  0.83825779    -0.20100
C1363       C  0.18273481  0.49609781  0.84643137     0.20500
C1364       C  0.19337675  0.48998926  0.85677627    -0.03000
C1365       C  0.19369182  0.47708021  0.85685517    -0.06100
C1366       C  0.18336767  0.47020333  0.84657425     0.20800
C1367       C  0.20453929  0.47108498  0.86562682     0.19000
C1368       C  0.21474796  0.47793305  0.87606665    -0.17600
C1369       C  0.21443422  0.49068234  0.87601002    -0.19800
C1370       C  0.20390929  0.49676435  0.86549080     0.20500
C1371       C  0.20395200  0.50947833  0.86202810    -0.32800
C1372       C  0.19372369  0.51561329  0.84913688     0.01200
C1373       C  0.18294476  0.50893623  0.84285730    -0.24100
C1374       C  0.18420788  0.45739896  0.84308990    -0.28700
C1375       C  0.19529547  0.45151734  0.84940059     0.06800
C1376       C  0.20520903  0.45838781  0.86222678    -0.27400
H1377       H  0.16453757  0.47123944  0.83080739     0.11600
H1378       H  0.16398622  0.49368408  0.83071411     0.12700
H1379       H  0.22310550  0.47343419  0.88317313     0.11800
H1380       H  0.22255438  0.49578757  0.88308181     0.11000
H1381       H  0.21213477  0.51459013  0.86844535     0.16400
H1382       H  0.17496124  0.51361382  0.83340954     0.12300
H1383       H  0.17648029  0.45214700  0.83356169     0.15200
H1384       H  0.21364250  0.45387585  0.86847923     0.14900
C1385       C  0.21088034  0.48968693  0.13044884    -0.17900
C1386       C  0.21209782  0.47699848  0.13089867    -0.20100
C1387       C  0.20329968  0.46961329  0.14728901     0.20500
C1388       C  0.19295673  0.47499097  0.16240606    -0.03000
C1389       C  0.19174516  0.48782165  0.16205271    -0.06100
C1390       C  0.20087164  0.49517500  0.14650950     0.20800
C1391       C  0.18164256  0.49330763  0.17828465     0.19000
C1392       C  0.17269197  0.48585239  0.19385472    -0.17600
C1393       C  0.17387375  0.47310231  0.19409140    -0.19800
C1394       C  0.18403474  0.46758369  0.17880384     0.20500
C1395       C  0.18564290  0.45485263  0.18047370    -0.32800
C1396       C  0.19619177  0.44959267  0.16673204     0.01200
C1397       C  0.20485050  0.45697604  0.14966867    -0.24100
C1398       C  0.20010398  0.50790279  0.14856430    -0.28700
C1399       C  0.19039169  0.51341621  0.16608662     0.06800
C1400       C  0.18095714  0.50613777  0.17984479    -0.27400
H1401       H  0.21791453  0.49522938  0.11826232     0.11600
H1402       H  0.22004230  0.47297337  0.11900650     0.12700
H1403       H  0.16488043  0.48989483  0.20642316     0.11800
H1404       H  0.16694082  0.46756948  0.20678660     0.11000
H1405       H  0.17898778  0.44911094  0.19370181     0.16400
H1406       H  0.21291064  0.45285481  0.13868823     0.12300
H1407       H  0.20728153  0.51357004  0.13754347     0.15200
H1408       H  0.17346571  0.51044208  0.19336299     0.14900
C1409       C  0.17723535  0.52568405  0.02253599    -0.17900
C1410       C  0.17793896  0.52600685  0.98552959    -0.20100
C1411       C  0.18111953  0.53688371  0.96797930     0.20500
C1412       C  0.18309906  0.54767159  0.98777712    -0.03000
C1413       C  0.18230257  0.54736382  0.02514629    -0.06100
C1414       C  0.17964174  0.53624737  0.04261947     0.20800
C1415       C  0.18476823  0.55803152  0.04504983     0.19000
C1416       C  0.18749277  0.56901614  0.02741301    -0.17600
C1417       C  0.18835881  0.56930201  0.99041089    -0.19800
C1418       C  0.18645689  0.55862132  0.97040041     0.20500
C1419       C  0.18837291  0.55856183  0.93357918    -0.32800
C1420       C  0.18694524  0.54769794  0.91391698     0.01200
C1421       C  0.18293724  0.53700236  0.93120559    -0.24100
C1422       C  0.18010892  0.53572621  0.07978976    -0.28700
C1423       C  0.18331813  0.54614718  0.09973633     0.06800
C1424       C  0.18511074  0.55738419  0.08218799    -0.27400
H1425       H  0.17513080  0.51708622  0.03549405     0.11600
H1426       H  0.17634525  0.51765236  0.97068451     0.12700
H1427       H  0.18934170  0.57730881  0.04230346     0.11800
H1428       H  0.19084273  0.57781025  0.97751504     0.11000
H1429       H  0.19132655  0.56686708  0.92037647     0.16400
H1430       H  0.18196847  0.52853551  0.91647857     0.12300
H1431       H  0.17882315  0.52700235  0.09291370     0.15200
H1432       H  0.18735142  0.56552171  0.09736893     0.14900
C1433       C  0.33868049  0.48401616  0.32893778    -0.17900
C1434       C  0.33820412  0.49679095  0.32731728    -0.20100
C1435       C  0.33134155  0.50258077  0.30096208     0.20500
C1436       C  0.32524172  0.49543322  0.27523748    -0.03000
C1437       C  0.32578490  0.48252588  0.27674372    -0.06100
C1438       C  0.33235844  0.47679715  0.30411246     0.20800
C1439       C  0.31942787  0.47536650  0.25156074     0.19000
C1440       C  0.31282476  0.48116462  0.22467000    -0.17600
C1441       C  0.31221230  0.49393795  0.22334325    -0.19800
C1442       C  0.31823241  0.50115672  0.24879890     0.20500
C1443       C  0.31693763  0.51393962  0.24919926    -0.32800
C1444       C  0.32250712  0.52108309  0.27582759     0.01200
C1445       C  0.33003340  0.51534412  0.30086777    -0.24100
C1446       C  0.33222213  0.46397596  0.30674295    -0.28700
C1447       C  0.32565406  0.45677700  0.28224151     0.06800
C1448       C  0.31948819  0.46255424  0.25429826    -0.27400
H1449       H  0.34382746  0.47977889  0.35000891     0.11600
H1450       H  0.34297586  0.50214170  0.34721722     0.12700
H1451       H  0.30791926  0.47580959  0.20505764     0.11800
H1452       H  0.30682529  0.49816601  0.20278353     0.11000
H1453       H  0.31114076  0.51825424  0.22976544     0.16400
H1454       H  0.33438791  0.52074240  0.32147604     0.12300
H1455       H  0.33703867  0.45961355  0.32828536     0.15200
H1456       H  0.31438587  0.45709637  0.23533590     0.14900
C1457       C  0.34748338  0.63099297  0.27536333    -0.17900
C1458       C  0.33853717  0.62181729  0.27588550    -0.20100
C1459       C  0.34140157  0.60968747  0.26738271     0.20500
C1460       C  0.35332158  0.60686992  0.25698625    -0.03000
C1461       C  0.36239050  0.61615807  0.25654209    -0.06100
C1462       C  0.35948188  0.62822452  0.26636184     0.20800
C1463       C  0.37443446  0.61327941  0.24752719     0.19000
C1464       C  0.37717583  0.60122660  0.23769823    -0.17600
C1465       C  0.36819846  0.59204309  0.23805776    -0.19800
C1466       C  0.35628521  0.59470516  0.24831994     0.20500
C1467       C  0.34742488  0.58536821  0.25143156    -0.32800
C1468       C  0.33565698  0.58801176  0.26354966     0.01200
C1469       C  0.33267229  0.60028052  0.27046982    -0.24100
C1470       C  0.36867433  0.63721740  0.26825285    -0.28700
C1471       C  0.38083846  0.63434697  0.26089348     0.06800
C1472       C  0.38357476  0.62238298  0.24970412    -0.27400
H1473       H  0.34506464  0.64022079  0.28279528     0.11600
H1474       H  0.32941900  0.62416812  0.28372700     0.12700
H1475       H  0.38633901  0.59883517  0.23044483     0.11800
H1476       H  0.37065095  0.58278275  0.23108875     0.11000
H1477       H  0.34984995  0.57598008  0.24592343     0.16400
H1478       H  0.32364974  0.60247225  0.27959636     0.12300
H1479       H  0.36640129  0.64637629  0.27678718     0.15200
H1480       H  0.39287203  0.62004596  0.24384446     0.14900
C1481       C  0.25296797  0.56686238  0.18768730    -0.17900
C1482       C  0.24107405  0.56521401  0.17569833    -0.20100
C1483       C  0.23223708  0.55994319  0.19779333     0.20500
C1484       C  0.23532788  0.55662137  0.23266912    -0.03000
C1485       C  0.24738068  0.55830395  0.24485901    -0.06100
C1486       C  0.25626608  0.56327406  0.22200930     0.20800
C1487       C  0.25062406  0.55464122  0.27939632     0.19000
C1488       C  0.24168779  0.54963420  0.30173529    -0.17600
C1489       C  0.22977039  0.54788567  0.28953153    -0.19800
C1490       C  0.22652532  0.55117647  0.25481232     0.20500
C1491       C  0.21481755  0.54866558  0.24136842    -0.32800
C1492       C  0.21169514  0.55154533  0.20598142     0.01200
C1493       C  0.22055034  0.55745854  0.18483242    -0.24100
C1494       C  0.26836757  0.56422426  0.23336909    -0.28700
C1495       C  0.27180854  0.56022698  0.26729443     0.06800
C1496       C  0.26279918  0.55569171  0.29048581    -0.27400
H1497       H  0.25965097  0.57073236  0.16982870     0.11600
H1498       H  0.23884598  0.56783833  0.14879613     0.12700
H1499       H  0.24397468  0.54681751  0.32842288     0.11800
H1500       H  0.22314412  0.54374262  0.30706178     0.11000
H1501       H  0.20828193  0.54391755  0.25791449     0.16400
H1502       H  0.21888902  0.55952588  0.15738814     0.12300
H1503       H  0.27517892  0.56778262  0.21536751     0.15200
H1504       H  0.26531656  0.55261548  0.31676081     0.14900
C1505       C  0.33404163  0.48251133  0.67196613    -0.17900
C1506       C  0.33406688  0.49528690  0.67181120    -0.20100
C1507       C  0.33039035  0.50180575  0.70189877     0.20500
C1508       C  0.32699741  0.49540237  0.73283307    -0.03000
C1509       C  0.32696829  0.48247016  0.73298685    -0.06100
C1510       C  0.33032683  0.47603808  0.70219090     0.20800
C1511       C  0.32322175  0.47599244  0.76349390     0.19000
C1512       C  0.31989068  0.48255882  0.79391126    -0.17600
C1513       C  0.31990160  0.49538509  0.79373998    -0.19800
C1514       C  0.32325928  0.50190016  0.76317111     0.20500
C1515       C  0.32255813  0.51474740  0.76196454    -0.32800
C1516       C  0.32548661  0.52114987  0.73071000     0.01200
C1517       C  0.32966361  0.51459155  0.70111253    -0.24100
C1518       C  0.32955016  0.46325452  0.70165312    -0.28700
C1519       C  0.32538671  0.45669331  0.73135586     0.06800
C1520       C  0.32251316  0.46310990  0.76257760    -0.27400
H1521       H  0.33670065  0.47768660  0.64817056     0.11600
H1522       H  0.33674156  0.50006904  0.64789455     0.12700
H1523       H  0.31704592  0.47777269  0.81764818     0.11800
H1524       H  0.31706108  0.50020923  0.81734494     0.11000
H1525       H  0.31931060  0.51970738  0.78487454     0.16400
H1526       H  0.33195196  0.51940667  0.67689358     0.12300
H1527       H  0.33190246  0.45841130  0.67758621     0.15200
H1528       H  0.31932417  0.45813368  0.78562447     0.14900
C1529       C  0.38620404  0.60112033  0.73843715    -0.17900
C1530       C  0.37752551  0.59165349  0.73903933    -0.20100
C1531       C  0.36513191  0.59426168  0.74202936     0.20500
C1532       C  0.36152192  0.60655058  0.74549343    -0.03000
C1533       C  0.37029785  0.61612596  0.74484518    -0.06100
C1534       C  0.38268223  0.61340400  0.74079086     0.20800
C1535       C  0.36663097  0.62842805  0.74718289     0.19000
C1536       C  0.35428199  0.63102338  0.75122811    -0.17600
C1537       C  0.34561867  0.62156832  0.75191422    -0.19800
C1538       C  0.34911323  0.60931436  0.74853018     0.20500
C1539       C  0.34038304  0.59984388  0.74699732    -0.32800
C1540       C  0.34381874  0.58757998  0.74216297     0.01200
C1541       C  0.35627749  0.58486083  0.74049412    -0.24100
C1542       C  0.39126582  0.62300004  0.73805917    -0.28700
C1543       C  0.38764733  0.63533283  0.73901169     0.06800
C1544       C  0.37530440  0.63792323  0.74434255    -0.27400
H1545       H  0.39567200  0.59883331  0.73547293     0.11600
H1546       H  0.38050287  0.58228600  0.73652254     0.12700
H1547       H  0.35128817  0.64039992  0.75323420     0.11800
H1548       H  0.33613862  0.62386683  0.75443156     0.11000
H1549       H  0.33085820  0.60208877  0.74839532     0.16400
H1550       H  0.35907692  0.57547734  0.73679930     0.12300
H1551       H  0.40072156  0.62085304  0.73397321     0.15200
H1552       H  0.37237702  0.64734763  0.74516782     0.14900
C1553       C  0.26103809  0.55574857  0.83864820    -0.17900
C1554       C  0.24910564  0.55427627  0.85048309    -0.20100
C1555       C  0.23937740  0.55466565  0.82649370     0.20500
C1556       C  0.24169578  0.55670933  0.79025362    -0.03000
C1557       C  0.25378507  0.55812519  0.77821388    -0.06100
C1558       C  0.26349409  0.55758800  0.80255739     0.20800
C1559       C  0.25616288  0.55982588  0.74181140     0.19000
C1560       C  0.24640989  0.56019166  0.71783927    -0.17600
C1561       C  0.23445321  0.55875357  0.72975839    -0.19800
C1562       C  0.23198584  0.55694712  0.76591713     0.20500
C1563       C  0.22004021  0.55496130  0.77792305    -0.32800
C1564       C  0.21756271  0.55281169  0.81419518     0.01200
C1565       C  0.22743622  0.55263342  0.83805998    -0.24100
C1566       C  0.27549362  0.55869658  0.79041461    -0.28700
C1567       C  0.27800905  0.56031257  0.75414853     0.06800
C1568       C  0.26823834  0.56093264  0.73002049    -0.27400
H1569       H  0.26836942  0.55531079  0.85772958     0.11600
H1570       H  0.24749424  0.55271085  0.87843392     0.12700
H1571       H  0.24803350  0.56147512  0.68977505     0.11800
H1572       H  0.22713161  0.55893862  0.71059589     0.11000
H1573       H  0.21284036  0.55447600  0.75849626     0.16400
H1574       H  0.22589564  0.55038818  0.86564652     0.12300
H1575       H  0.28290017  0.55813069  0.80923056     0.15200
H1576       H  0.27002955  0.56208552  0.70198410     0.14900
C1577       C  0.30483915  0.54000813  0.52669544    -0.17900
C1578       C  0.30444488  0.53978892  0.48969123    -0.20100
C1579       C  0.30828336  0.55000502  0.47009302     0.20500
C1580       C  0.31254883  0.56056384  0.48791753    -0.03000
C1581       C  0.31292161  0.56079576  0.52530125    -0.06100
C1582       C  0.30906178  0.55045232  0.54468617     0.20800
C1583       C  0.31716281  0.57135093  0.54324355     0.19000
C1584       C  0.32103725  0.58154858  0.52357647    -0.17600
C1585       C  0.32068325  0.58131230  0.48648574    -0.19800
C1586       C  0.31644330  0.57087717  0.46841470     0.20500
C1587       C  0.31602978  0.57056413  0.43122292    -0.32800
C1588       C  0.31177756  0.56006616  0.41331421     0.01200
C1589       C  0.30792991  0.54983012  0.43298484    -0.24100
C1590       C  0.30951032  0.55069861  0.58173540    -0.28700
C1591       C  0.31369551  0.56116375  0.59987620     0.06800
C1592       C  0.31748003  0.57148892  0.58048100    -0.27400
H1593       H  0.30184123  0.53200007  0.54125800     0.11600
H1594       H  0.30114544  0.53161718  0.47638950     0.12700
H1595       H  0.32434498  0.58971464  0.53688473     0.11800
H1596       H  0.32372119  0.58930319  0.47192145     0.11000
H1597       H  0.31902517  0.57848351  0.41623868     0.16400
H1598       H  0.30464828  0.54169764  0.41941154     0.12300
H1599       H  0.30656929  0.54270347  0.59648620     0.15200
H1600       H  0.32078249  0.57955854  0.59431622     0.14900
C1601       C  0.80448648  0.51532481  0.79620945    -0.17900
C1602       C  0.80511381  0.50252653  0.79485657    -0.20100
C1603       C  0.79554138  0.49523717  0.80774126     0.20500
C1604       C  0.78531656  0.50094506  0.82262633    -0.03000
C1605       C  0.78466910  0.51382625  0.82389624    -0.06100
C1606       C  0.79427074  0.52107583  0.81044860     0.20800
C1607       C  0.77426529  0.51943656  0.83788878     0.19000
C1608       C  0.76475349  0.51220914  0.85118816    -0.17600
C1609       C  0.76541665  0.49948063  0.85007640    -0.19800
C1610       C  0.77557656  0.49378957  0.83549420     0.20500
C1611       C  0.77595985  0.48106688  0.83257070    -0.32800
C1612       C  0.78584498  0.47530968  0.81649483     0.01200
C1613       C  0.79579406  0.48238577  0.80503853    -0.24100
C1614       C  0.79330596  0.53390699  0.81067425    -0.28700
C1615       C  0.78275849  0.53945571  0.82352743     0.06800
C1616       C  0.77339600  0.53217369  0.83759124    -0.27400
H1617       H  0.81193151  0.52072817  0.78569508     0.11600
H1618       H  0.81302529  0.49833004  0.78329986     0.12700
H1619       H  0.75672424  0.51640489  0.86204411     0.11800
H1620       H  0.75788258  0.49408116  0.86007252     0.11000
H1621       H  0.76837888  0.47560226  0.84203913     0.16400
H1622       H  0.80342394  0.47794316  0.79262560     0.12300
H1623       H  0.80048407  0.53953452  0.79952102     0.15200
H1624       H  0.76530533  0.53646311  0.84779590     0.14900
C1625       C  0.79405312  0.50244336  0.09174403    -0.17900
C1626       C  0.79224061  0.51509407  0.09209888    -0.20100
C1627       C  0.78823590  0.52093455  0.12302458     0.20500
C1628       C  0.78627988  0.51401885  0.15407234    -0.03000
C1629       C  0.78814173  0.50130600  0.15374615    -0.06100
C1630       C  0.79188054  0.49545405  0.12232196     0.20800
C1631       C  0.78581527  0.49439562  0.18456921     0.19000
C1632       C  0.78190552  0.50021681  0.21554500    -0.17600
C1633       C  0.78003307  0.51280634  0.21584096    -0.19800
C1634       C  0.78209590  0.51974164  0.18520893     0.20500
C1635       C  0.77984091  0.53227288  0.18505946    -0.32800
C1636       C  0.78165192  0.53917985  0.15423938     0.01200
C1637       C  0.78587029  0.53350461  0.12333004    -0.24100
C1638       C  0.79276777  0.48266011  0.12158261    -0.28700
C1639       C  0.78983107  0.47574353  0.15173237     0.06800
C1640       C  0.78685105  0.48170095  0.18343763    -0.27400
H1641       H  0.79692507  0.49809910  0.06740083     0.11600
H1642       H  0.79380150  0.52028158  0.06805363     0.12700
H1643       H  0.78005388  0.49499221  0.23934340     0.11800
H1644       H  0.77681673  0.51709633  0.23989534     0.11000
H1645       H  0.77658438  0.53668810  0.20891110     0.16400
H1646       H  0.78682497  0.53869113  0.09923445     0.12300
H1647       H  0.79490335  0.47815181  0.09708841     0.15200
H1648       H  0.78469424  0.47634884  0.20681993     0.14900
C1649       C  0.77843228  0.59354780  0.96834907    -0.17900
C1650       C  0.77774048  0.59343124  0.00535997    -0.20100
C1651       C  0.78190185  0.58334213  0.02461743     0.20500
C1652       C  0.78719109  0.57346175  0.00644695    -0.03000
C1653       C  0.78765627  0.57345859  0.96903295    -0.06100
C1654       C  0.78312598  0.58349704  0.94995028     0.20800
C1655       C  0.79221180  0.56322309  0.95074106     0.19000
C1656       C  0.79681595  0.55334772  0.97013119    -0.17600
C1657       C  0.79663897  0.55349014  0.00723978    -0.19800
C1658       C  0.79164003  0.56340616  0.02558615     0.20500
C1659       C  0.79051565  0.56318079  0.06259818    -0.32800
C1660       C  0.78423970  0.57242066  0.08065635     0.01200
C1661       C  0.78039366  0.58272798  0.06151647    -0.24100
C1662       C  0.78283376  0.58308860  0.91283124    -0.28700
C1663       C  0.78649045  0.57255357  0.89434688     0.06800
C1664       C  0.79155910  0.56281089  0.91351333    -0.27400
H1665       H  0.77493896  0.60134413  0.95405248     0.11600
H1666       H  0.77372602  0.60113210  0.01887622     0.12700
H1667       H  0.80037472  0.54542164  0.95659307     0.11800
H1668       H  0.80006574  0.54566770  0.02157086     0.11000
H1669       H  0.79400179  0.55546230  0.07684655     0.16400
H1670       H  0.77593286  0.59014152  0.07516475     0.12300
H1671       H  0.77921087  0.59079274  0.89839743     0.15200
H1672       H  0.79432503  0.55460032  0.89979232     0.14900
C1673       C  0.64333405  0.49284518  0.65703359    -0.17900
C1674       C  0.64311678  0.50561731  0.65698572    -0.20100
C1675       C  0.64883268  0.51229530  0.68416351     0.20500
C1676       C  0.65468630  0.50606255  0.71196855    -0.03000
C1677       C  0.65497605  0.49315900  0.71188799    -0.06100
C1678       C  0.64932894  0.48654741  0.68415667     0.20800
C1679       C  0.66113650  0.48689706  0.73908252     0.19000
C1680       C  0.66678680  0.49359669  0.76637046    -0.17600
C1681       C  0.66642675  0.50639305  0.76658668    -0.19800
C1682       C  0.66045069  0.51272059  0.73944108     0.20500
C1683       C  0.66034594  0.52557436  0.73883443    -0.32800
C1684       C  0.65479180  0.53181183  0.71066486     0.01200
C1685       C  0.64898601  0.52509903  0.68361764    -0.24100
C1686       C  0.65007229  0.47377403  0.68342273    -0.28700
C1687       C  0.65651255  0.46747923  0.70978659     0.06800
C1688       C  0.66182141  0.47408195  0.73794507    -0.27400
H1689       H  0.63896028  0.48789414  0.63555898     0.11600
H1690       H  0.63856952  0.51027958  0.63549327     0.12700
H1691       H  0.67158392  0.48894105  0.78739868     0.11800
H1692       H  0.67094007  0.51134824  0.78780236     0.11000
H1693       H  0.66493536  0.53071235  0.75956807     0.16400
H1694       H  0.64467314  0.52986166  0.66186863     0.12300
H1695       H  0.64595199  0.46875877  0.66162813     0.15200
H1696       H  0.66684344  0.46929578  0.75827831     0.14900
C1697       C  0.72598896  0.57046399  0.82949955    -0.17900
C1698       C  0.71390847  0.57088427  0.81852872    -0.20100
C1699       C  0.71098406  0.57435146  0.78381227     0.20500
C1700       C  0.72033300  0.57770377  0.76012542    -0.03000
C1701       C  0.73258306  0.57733717  0.77132173    -0.06100
C1702       C  0.73536425  0.57353495  0.80598328     0.20800
C1703       C  0.74202984  0.58035777  0.74756884     0.19000
C1704       C  0.73903892  0.58396631  0.71291397    -0.17600
C1705       C  0.72689403  0.58432184  0.70178394    -0.19800
C1706       C  0.71746384  0.58109525  0.72507626     0.20500
C1707       C  0.70525999  0.58092477  0.71382807    -0.32800
C1708       C  0.69589800  0.57734918  0.73720722     0.01200
C1709       C  0.69888866  0.57423172  0.77226484    -0.24100
C1710       C  0.74746678  0.57236540  0.81628616    -0.28700
C1711       C  0.75709922  0.57499917  0.79282473     0.06800
C1712       C  0.75424945  0.57926191  0.75848544    -0.27400
H1713       H  0.72801120  0.56754128  0.85627987     0.11600
H1714       H  0.70685371  0.56830295  0.83706729     0.12700
H1715       H  0.74610856  0.58632798  0.69419232     0.11800
H1716       H  0.72488804  0.58697073  0.67475916     0.11000
H1717       H  0.70308670  0.58329941  0.68668483     0.16400
H1718       H  0.69180373  0.57143893  0.79047504     0.12300
H1719       H  0.74941877  0.56879199  0.84245174     0.15200
H1720       H  0.76138492  0.58111356  0.73961221     0.14900
C1721       C  0.65671481  0.51014207  0.20690568    -0.17900
C1722       C  0.65820538  0.49741110  0.20623468    -0.20100
C1723       C  0.65854459  0.49066199  0.23789085     0.20500
C1724       C  0.65722130  0.49685098  0.27051296    -0.03000
C1725       C  0.65565264  0.50968730  0.27118089    -0.06100
C1726       C  0.65549951  0.51639789  0.23924178     0.20800
C1727       C  0.65447224  0.51581957  0.30389753     0.19000
C1728       C  0.65464762  0.50909764  0.33554222    -0.17600
C1729       C  0.65624474  0.49643525  0.33489067    -0.19800
C1730       C  0.65764402  0.49025042  0.30257528     0.20500
C1731       C  0.65958026  0.47759930  0.30190558    -0.32800
C1732       C  0.66097816  0.47129721  0.26963216     0.01200
C1733       C  0.66031931  0.47789038  0.23761197    -0.24100
C1734       C  0.65444327  0.52924331  0.24032192    -0.28700
C1735       C  0.65366745  0.53544843  0.27300520     0.06800
C1736       C  0.65345784  0.52859549  0.30456207    -0.27400
H1737       H  0.65662394  0.51511448  0.18209082     0.11600
H1738       H  0.65920540  0.49285501  0.18091585     0.12700
H1739       H  0.65371584  0.51366174  0.36087901     0.11800
H1740       H  0.65649112  0.49148560  0.35973868     0.11000
H1741       H  0.65999490  0.47263038  0.32672151     0.16400
H1742       H  0.66142045  0.47313926  0.21262178     0.12300
H1743       H  0.65464410  0.53442605  0.21586022     0.15200
H1744       H  0.65280605  0.53324652  0.32986790     0.14900
C1745       C  0.71048838  0.56743345  0.15866789    -0.17900
C1746       C  0.72252013  0.56616730  0.14792600    -0.20100
C1747       C  0.73201790  0.57088487  0.16881188     0.20500
C1748       C  0.72939902  0.57706664  0.20058946    -0.03000
C1749       C  0.71722615  0.57841548  0.21136092    -0.06100
C1750       C  0.70774554  0.57347035  0.19043205     0.20800
C1751       C  0.71456516  0.58446326  0.24340395     0.19000
C1752       C  0.72409378  0.58921098  0.26416414    -0.17600
C1753       C  0.73615733  0.58781200  0.25357145    -0.19800
C1754       C  0.73893182  0.58168913  0.22191721     0.20500
C1755       C  0.75104917  0.57990782  0.21161798    -0.32800
C1756       C  0.75377166  0.57353308  0.18011445     0.01200
C1757       C  0.74408787  0.56928104  0.15874693    -0.24100
C1758       C  0.69571921  0.57433765  0.20207355    -0.28700
C1759       C  0.69299231  0.58005981  0.23445510     0.06800
C1760       C  0.70246320  0.58533557  0.25460298    -0.27400
H1761       H  0.70332972  0.56357464  0.14229517     0.11600
H1762       H  0.72440586  0.56136609  0.12344848     0.12700
H1763       H  0.72222474  0.59387087  0.28887739     0.11800
H1764       H  0.74332933  0.59143214  0.27033340     0.11000
H1765       H  0.75818530  0.58330125  0.22869529     0.16400
H1766       H  0.74601913  0.56432859  0.13452355     0.12300
H1767       H  0.68850710  0.57023595  0.18637527     0.15200
H1768       H  0.70047081  0.58971254  0.27967923     0.14900
C1769       C  0.63601055  0.57337183  0.50837927    -0.17900
C1770       C  0.63595115  0.57416621  0.47139852    -0.20100
C1771       C  0.64675426  0.57633823  0.45281294     0.20500
C1772       C  0.65773257  0.57778198  0.47162602    -0.03000
C1773       C  0.65779119  0.57699094  0.50897874    -0.06100
C1774       C  0.64687512  0.57475425  0.52740509     0.20800
C1775       C  0.66877472  0.57835411  0.52782901     0.19000
C1776       C  0.67957588  0.58054026  0.50923107    -0.17600
C1777       C  0.67952090  0.58129999  0.47220162    -0.19800
C1778       C  0.66865877  0.57989208  0.45312164     0.20500
C1779       C  0.66854187  0.58037288  0.41588689    -0.32800
C1780       C  0.65763046  0.57876827  0.39695862     0.01200
C1781       C  0.64677390  0.57690223  0.41571609    -0.24100
C1782       C  0.64701863  0.57389364  0.56449742    -0.28700
C1783       C  0.65793901  0.57522996  0.58345638     0.06800
C1784       C  0.66877528  0.57746098  0.56490891    -0.27400
H1785       H  0.62755542  0.57164254  0.52209947     0.11600
H1786       H  0.62745150  0.57301620  0.45730106     0.12700
H1787       H  0.68808475  0.58161519  0.52332837     0.11800
H1788       H  0.68799148  0.58292795  0.45846943     0.11000
H1789       H  0.67695609  0.58180032  0.40165944     0.16400
H1790       H  0.63832963  0.57562347  0.40139475     0.12300
H1791       H  0.63863220  0.57213564  0.57857881     0.15200
H1792       H  0.67723387  0.57847613  0.57932237     0.14900
C1793       C  0.47304861  0.80992821  0.18054072    -0.17900
C1794       C  0.48572179  0.81079858  0.17965785    -0.20100
C1795       C  0.49261865  0.80113792  0.16619597     0.20500
C1796       C  0.48664288  0.79069613  0.15224764    -0.03000
C1797       C  0.47389296  0.78979991  0.15325662    -0.06100
C1798       C  0.46705872  0.79936784  0.16805697     0.20800
C1799       C  0.46802678  0.77910516  0.14069851     0.19000
C1800       C  0.47484557  0.76966784  0.12582222    -0.17600
C1801       C  0.48745656  0.77055884  0.12479185    -0.19800
C1802       C  0.49342028  0.78089992  0.13862840     0.20500
C1803       C  0.50604840  0.78134348  0.14055297    -0.32800
C1804       C  0.51204652  0.79134028  0.15640726     0.01200
C1805       C  0.50535172  0.80144281  0.16791569    -0.24100
C1806       C  0.45442959  0.79797319  0.17126697    -0.28700
C1807       C  0.44869332  0.78703228  0.16054745     0.06800
C1808       C  0.45548874  0.77781636  0.14438818    -0.27400
H1809       H  0.46794919  0.81739026  0.19180230     0.11600
H1810       H  0.49014008  0.81890549  0.19030168     0.12700
H1811       H  0.47044248  0.76145471  0.11582338     0.11800
H1812       H  0.49256384  0.76300739  0.11406313     0.11000
H1813       H  0.51123797  0.77366004  0.13094789     0.16400
H1814       H  0.50999204  0.80916731  0.18008768     0.12300
H1815       H  0.44915484  0.80512329  0.18354313     0.15200
H1816       H  0.45100925  0.76951400  0.13526787     0.14900
C1817       C  0.48815709  0.76442731  0.85666315    -0.17900
C1818       C  0.47552815  0.76460023  0.85793716    -0.20100
C1819       C  0.46926496  0.77531850  0.84969498     0.20500
C1820       C  0.47575496  0.78606740  0.84092031    -0.03000
C1821       C  0.48852138  0.78590732  0.83977907    -0.06100
C1822       C  0.49470909  0.77498353  0.84729433     0.20800
C1823       C  0.49506941  0.79658127  0.83050360     0.19000
C1824       C  0.48877808  0.80736864  0.82297412    -0.17600
C1825       C  0.47609415  0.80751117  0.82394997    -0.19800
C1826       C  0.46948783  0.79688007  0.83253018     0.20500
C1827       C  0.45675015  0.79672715  0.83181606    -0.32800
C1828       C  0.45027849  0.78587226  0.83913672     0.01200
C1829       C  0.45661266  0.77533917  0.84910463    -0.24100
C1830       C  0.50733548  0.77474266  0.84491332    -0.28700
C1831       C  0.51392254  0.78525491  0.83507733     0.06800
C1832       C  0.50776166  0.79620341  0.82835383    -0.27400
H1833       H  0.49279751  0.75599098  0.86262920     0.11600
H1834       H  0.47064763  0.75628997  0.86479274     0.12700
H1835       H  0.49365990  0.81565212  0.81590176     0.11800
H1836       H  0.47144552  0.81590377  0.81752919     0.11000
H1837       H  0.45191977  0.80487829  0.82404586     0.16400
H1838       H  0.45167628  0.76703571  0.85573169     0.12300
H1839       H  0.51205359  0.76634311  0.85084605     0.15200
H1840       H  0.51279476  0.80431008  0.82047706     0.14900
C1841       C  0.52486931  0.80444154  0.01651648    -0.17900
C1842       C  0.52492099  0.80326336  0.97953711    -0.20100
C1843       C  0.53530842  0.79920070  0.96182389     0.20500
C1844       C  0.54589110  0.79676087  0.98146514    -0.03000
C1845       C  0.54585832  0.79801301  0.01879876    -0.06100
C1846       C  0.53521410  0.80161011  0.03648167     0.20800
C1847       C  0.55631462  0.79514231  0.03850214     0.19000
C1848       C  0.56681913  0.79145453  0.02072750    -0.17600
C1849       C  0.56683782  0.79017892  0.98381589    -0.19800
C1850       C  0.55636457  0.79260671  0.96399009     0.20500
C1851       C  0.55608072  0.79058343  0.92720177    -0.32800
C1852       C  0.54542122  0.79253564  0.90750762     0.01200
C1853       C  0.53514712  0.79709730  0.92505649    -0.24100
C1854       C  0.53489378  0.80163527  0.07378123    -0.28700
C1855       C  0.54506212  0.79801482  0.09362921     0.06800
C1856       C  0.55590436  0.79536610  0.07567045    -0.27400
H1857       H  0.51663012  0.80727190  0.02957465     0.11600
H1858       H  0.51672886  0.80524824  0.96485645     0.12700
H1859       H  0.57493518  0.78923018  0.03546907     0.11800
H1860       H  0.57497663  0.78703151  0.97084516     0.11000
H1861       H  0.56411718  0.78727520  0.91403383     0.16400
H1862       H  0.52679233  0.79844758  0.91055996     0.12300
H1863       H  0.52645669  0.80359427  0.08712864     0.15200
H1864       H  0.56386775  0.79279806  0.09065359     0.14900
C1865       C  0.48956753  0.64010688  0.68183780    -0.17900
C1866       C  0.47688489  0.64028695  0.68282777    -0.20100
C1867       C  0.47083603  0.64827484  0.70579040     0.20500
C1868       C  0.47764720  0.65585893  0.72882907    -0.03000
C1869       C  0.49045759  0.65561175  0.72801337    -0.06100
C1870       C  0.49644346  0.64787760  0.70389376     0.20800
C1871       C  0.49725603  0.66343241  0.75042383     0.19000
C1872       C  0.49121808  0.67118637  0.77402560    -0.17600
C1873       C  0.47854997  0.67148772  0.77466556    -0.19800
C1874       C  0.47167709  0.66399549  0.75183910     0.20500
C1875       C  0.45897406  0.66478180  0.75085993    -0.32800
C1876       C  0.45211428  0.65752753  0.72719824     0.01200
C1877       C  0.45813058  0.64909871  0.70529573    -0.24100
C1878       C  0.50915150  0.64841831  0.70127049    -0.28700
C1879       C  0.51595686  0.65657447  0.72254314     0.06800
C1880       C  0.50994235  0.66375141  0.74783682    -0.27400
H1881       H  0.49399710  0.63405786  0.66329391     0.11600
H1882       H  0.47180330  0.63435889  0.66505298     0.12700
H1883       H  0.49630029  0.67723345  0.79146134     0.11800
H1884       H  0.47412668  0.67775069  0.79260864     0.11000
H1885       H  0.45445509  0.67129610  0.76783585     0.16400
H1886       H  0.45295877  0.64348132  0.68689064     0.12300
H1887       H  0.51370057  0.64282221  0.68177672     0.15200
H1888       H  0.51508488  0.67008517  0.76426988     0.14900
C1889       C  0.62547042  0.63071736  0.73334759    -0.17900
C1890       C  0.61606780  0.63918808  0.73202207    -0.20100
C1891       C  0.60393835  0.63522173  0.73085298     0.20500
C1892       C  0.60125114  0.62258186  0.73206465    -0.03000
C1893       C  0.61076766  0.61400888  0.73334676    -0.06100
C1894       C  0.62293065  0.61811412  0.73343814     0.20800
C1895       C  0.60812076  0.60135174  0.73334297     0.19000
C1896       C  0.59596696  0.59740074  0.73321206    -0.17600
C1897       C  0.58654550  0.60588830  0.73202356    -0.19800
C1898       C  0.58908505  0.61849771  0.73091875     0.20500
C1899       C  0.57971154  0.62706661  0.72772366    -0.32800
C1900       C  0.58233631  0.63968556  0.72538620     0.01200
C1901       C  0.59449095  0.64366508  0.72754867    -0.24100
C1902       C  0.63234732  0.60957955  0.73221760    -0.28700
C1903       C  0.62982382  0.59694729  0.73052711     0.06800
C1904       C  0.61765887  0.59290087  0.73210293    -0.27400
H1905       H  0.63475425  0.63403144  0.73355961     0.11600
H1906       H  0.61829916  0.64885639  0.73129089     0.12700
H1907       H  0.59374224  0.58772739  0.73334699     0.11800
H1908       H  0.57726389  0.60257369  0.73132343     0.11000
H1909       H  0.57039734  0.62388006  0.72602505     0.16400
H1910       H  0.59663859  0.65334061  0.72579167     0.12300
H1911       H  0.64165463  0.61281201  0.73111852     0.15200
H1912       H  0.61558438  0.58319983  0.73080603     0.14900
C1913       C  0.55277120  0.73150353  0.83718614    -0.17900
C1914       C  0.55408291  0.71959695  0.82437030    -0.20100
C1915       C  0.55633826  0.71750881  0.78831711     0.20500
C1916       C  0.55767925  0.72755584  0.76513519    -0.03000
C1917       C  0.55644006  0.73963269  0.77820196    -0.06100
C1918       C  0.55375594  0.74155147  0.81423248     0.20800
C1919       C  0.55733807  0.74971676  0.75499094     0.19000
C1920       C  0.55983365  0.74759407  0.71898954    -0.17600
C1921       C  0.56106493  0.73562949  0.70602368    -0.19800
C1922       C  0.55982086  0.72552248  0.72876541     0.20500
C1923       C  0.56028598  0.71343903  0.71569970    -0.32800
C1924       C  0.55858201  0.70336303  0.73857698     0.01200
C1925       C  0.55686601  0.70553774  0.77496757    -0.24100
C1926       C  0.55152023  0.75340337  0.82653369    -0.28700
C1927       C  0.55207850  0.76363148  0.80375851     0.06800
C1928       C  0.55518379  0.76164685  0.76785126    -0.27400
H1929       H  0.55074766  0.73284015  0.86499903     0.11600
H1930       H  0.55306323  0.71199774  0.84255890     0.12700
H1931       H  0.56059125  0.75518331  0.70067096     0.11800
H1932       H  0.56275903  0.73427612  0.67802878     0.11000
H1933       H  0.56161746  0.71189397  0.68760561     0.16400
H1934       H  0.55554398  0.69789272  0.79285943     0.12300
H1935       H  0.54866153  0.75456772  0.85376375     0.15200
H1936       H  0.55522937  0.76917767  0.74931595     0.14900
C1937       C  0.47473470  0.64292135  0.31286285    -0.17900
C1938       C  0.48740031  0.64365786  0.31212594    -0.20100
C1939       C  0.49334287  0.65123195  0.28752709     0.20500
C1940       C  0.48644548  0.65805051  0.26317935    -0.03000
C1941       C  0.47362771  0.65733450  0.26399859    -0.06100
C1942       C  0.46775481  0.64975971  0.28904760     0.20800
C1943       C  0.46670333  0.66437484  0.24024916     0.19000
C1944       C  0.47266024  0.67193490  0.21560843    -0.17600
C1945       C  0.48534462  0.67260652  0.21470436    -0.19800
C1946       C  0.49233779  0.66576009  0.23849908     0.20500
C1947       C  0.50508261  0.66670287  0.23862793    -0.32800
C1948       C  0.51202418  0.66013625  0.26341511     0.01200
C1949       C  0.50604028  0.65230446  0.28744299    -0.24100
C1950       C  0.45502207  0.64936447  0.29042252    -0.28700
C1951       C  0.44801617  0.65655469  0.26736221     0.06800
C1952       C  0.45396666  0.66394196  0.24207712    -0.27400
H1953       H  0.47039103  0.63708375  0.33234025     0.11600
H1954       H  0.49255458  0.63837325  0.33105517     0.12700
H1955       H  0.46750054  0.67742076  0.19718858     0.11800
H1956       H  0.48968619  0.67859405  0.19560644     0.11000
H1957       H  0.50956553  0.67283573  0.22018035     0.16400
H1958       H  0.51125994  0.64723463  0.30673453     0.12300
H1959       H  0.45057586  0.64374242  0.31025059     0.15200
H1960       H  0.44869295  0.66959410  0.22435844     0.14900
C1961       C  0.62342303  0.63521842  0.25030578    -0.17900
C1962       C  0.61385039  0.64352408  0.25032442    -0.20100
C1963       C  0.60179493  0.63936652  0.24796189     0.20500
C1964       C  0.59938780  0.62671966  0.24463120    -0.03000
C1965       C  0.60907108  0.61831696  0.24465294    -0.06100
C1966       C  0.62113362  0.62258420  0.24799233     0.20800
C1967       C  0.60665066  0.60564053  0.24246594     0.19000
C1968       C  0.59460661  0.60151037  0.23921673    -0.17600
C1969       C  0.58503076  0.60982026  0.23918706    -0.19800
C1970       C  0.58729987  0.62243460  0.24236977     0.20500
C1971       C  0.57769972  0.63078606  0.24441143    -0.32800
C1972       C  0.58000576  0.64339132  0.24890471     0.01200
C1973       C  0.59211683  0.64759964  0.24995308    -0.24100
C1974       C  0.63064881  0.61414669  0.25024173    -0.28700
C1975       C  0.62828698  0.60145313  0.24963481     0.06800
C1976       C  0.61625738  0.59730849  0.24483288    -0.27400
H1977       H  0.63262051  0.63867456  0.25278416     0.11600
H1978       H  0.61587514  0.65320465  0.25279781     0.12700
H1979       H  0.59256830  0.59181723  0.23736746     0.11800
H1980       H  0.57582154  0.60635292  0.23729438     0.11000
H1981       H  0.56843201  0.62741958  0.24369598     0.16400
H1982       H  0.59403097  0.65726781  0.25348691     0.12300
H1983       H  0.63985284  0.61747232  0.25387874     0.15200
H1984       H  0.61430582  0.58757567  0.24424222     0.14900
C1985       C  0.56000573  0.74959279  0.26847439    -0.17900
C1986       C  0.56154448  0.73733866  0.27826593    -0.20100
C1987       C  0.55867154  0.72783722  0.25448787     0.20500
C1988       C  0.55456225  0.73073988  0.22013045    -0.03000
C1989       C  0.55299807  0.74310185  0.21028641    -0.06100
C1990       C  0.55556572  0.75259747  0.23470064     0.20800
C1991       C  0.54846358  0.74591386  0.17641040     0.19000
C1992       C  0.54584875  0.73646602  0.15227767    -0.17600
C1993       C  0.54742679  0.72425584  0.16195165    -0.19800
C1994       C  0.55161284  0.72128565  0.19595991     0.20500
C1995       C  0.55245222  0.70903055  0.20659049    -0.32800
C1996       C  0.55600623  0.70603949  0.24130075     0.01200
C1997       C  0.55939847  0.71550568  0.26483877    -0.24100
C1998       C  0.55326540  0.76485650  0.22535568    -0.28700
C1999       C  0.54830155  0.76770507  0.19189358     0.06800
C2000       C  0.54619859  0.75808459  0.16754993    -0.27400
H2001       H  0.56207493  0.75671699  0.28759708     0.11600
H2002       H  0.56476100  0.73528692  0.30472629     0.12700
H2003       H  0.54237162  0.73851322  0.12609043     0.11800
H2004       H  0.54513457  0.71712316  0.14305846     0.11000
H2005       H  0.54982906  0.70183112  0.18824977     0.16400
H2006       H  0.56219704  0.71330057  0.29161283     0.12300
H2007       H  0.55489952  0.77196132  0.24474633     0.15200
H2008       H  0.54227429  0.76008201  0.14184659     0.14900
C2009       C  0.53796392  0.68354832  0.50845206    -0.17900
C2010       C  0.53789732  0.68390688  0.47141838    -0.20100
C2011       C  0.54538088  0.67612682  0.45185215     0.20500
C2012       C  0.55297141  0.66785223  0.46973303    -0.03000
C2013       C  0.55306808  0.66751834  0.50711430    -0.06100
C2014       C  0.54553752  0.67542458  0.52652746     0.20800
C2015       C  0.56072223  0.65931238  0.52502888     0.19000
C2016       C  0.56810573  0.65143250  0.50544400    -0.17600
C2017       C  0.56797790  0.65173320  0.46837924    -0.19800
C2018       C  0.56047608  0.65993044  0.45028984     0.20500
C2019       C  0.56032572  0.66033567  0.41312694    -0.32800
C2020       C  0.55279970  0.66858901  0.39515253     0.01200
C2021       C  0.54537752  0.67646658  0.41472727    -0.24100
C2022       C  0.54575095  0.67511486  0.56366234    -0.28700
C2023       C  0.55346772  0.66707719  0.58169526     0.06800
C2024       C  0.56089415  0.65916863  0.56219118    -0.27400
H2025       H  0.53211925  0.68966399  0.52297044     0.11600
H2026       H  0.53199545  0.69028530  0.45806755     0.12700
H2027       H  0.57400629  0.64505387  0.51880086     0.11800
H2028       H  0.57377508  0.64557273  0.45385517     0.11000
H2029       H  0.56605701  0.65421485  0.39820887     0.16400
H2030       H  0.53950399  0.68280159  0.40106312     0.12300
H2031       H  0.53997780  0.68121099  0.57852661     0.15200
H2032       H  0.56679567  0.65287794  0.57592653     0.14900
C2033       C  0.97241468  0.43054207  0.01090646    -0.17900
C2034       C  0.97082235  0.42969224  0.97417328    -0.20100
C2035       C  0.98077815  0.42782185  0.95181400     0.20500
C2036       C  0.99245047  0.42668992  0.96664872    -0.03000
C2037       C  0.99406064  0.42758038  0.00378676    -0.06100
C2038       C  0.98399901  0.42958065  0.02597554     0.20800
C2039       C  0.00574938  0.42668253  0.01861328     0.19000
C2040       C  0.01569619  0.42468603  0.99626531    -0.17600
C2041       C  0.01410434  0.42380424  0.95949371    -0.19800
C2042       C  0.00253721  0.42491717  0.94435720     0.20500
C2043       C  0.00090794  0.42454842  0.90735482    -0.32800
C2044       C  0.98931661  0.42588084  0.89231389     0.01200
C2045       C  0.97928562  0.42735372  0.91486556    -0.24100
C2046       C  0.98569001  0.43075573  0.06275794    -0.28700
C2047       C  0.99734535  0.43017856  0.07784274     0.06800
C2048       C  0.00732394  0.42803635  0.05539830    -0.27400
H2049       H  0.96458629  0.43208466  0.02752023     0.11600
H2050       H  0.96179761  0.43060328  0.96321255     0.12700
H2051       H  0.02474059  0.42392935  0.00720336     0.11800
H2052       H  0.02195098  0.42239856  0.94284749     0.11000
H2053       H  0.00867416  0.42333933  0.89025436     0.16400
H2054       H  0.97034764  0.42863838  0.90362664     0.12300
H2055       H  0.97787868  0.43210890  0.07955023     0.15200
H2056       H  0.01640453  0.42778080  0.06625415     0.14900
C2057       C  0.13292049  0.41301128  0.20600135    -0.17900
C2058       C  0.14420407  0.41306730  0.18907088    -0.20100
C2059       C  0.15496494  0.41381278  0.20893991     0.20500
C2060       C  0.15434062  0.41421914  0.24625035    -0.03000
C2061       C  0.14295489  0.41413634  0.26331041    -0.06100
C2062       C  0.13218806  0.41365924  0.24312048     0.20800
C2063       C  0.14236758  0.41510109  0.30048448     0.19000
C2064       C  0.15310369  0.41583413  0.32039670    -0.17600
C2065       C  0.16436183  0.41579944  0.30357487    -0.19800
C2066       C  0.16508038  0.41512431  0.26652983     0.20500
C2067       C  0.17633638  0.41578097  0.24945063    -0.32800
C2068       C  0.17704403  0.41573364  0.21226905     0.01200
C2069       C  0.16631148  0.41453340  0.19220086    -0.24100
C2070       C  0.12090935  0.41438272  0.26025662    -0.28700
C2071       C  0.12018334  0.41544367  0.29752703     0.06800
C2072       C  0.13108925  0.41588102  0.31714137    -0.27400
H2073       H  0.12475831  0.41265705  0.19001144     0.11600
H2074       H  0.14450669  0.41274529  0.16038427     0.12700
H2075       H  0.15279280  0.41660734  0.34901233     0.11800
H2076       H  0.17251116  0.41653102  0.31953061     0.11000
H2077       H  0.18450661  0.41691660  0.26514107     0.16400
H2078       H  0.16676504  0.41433274  0.16351985     0.12300
H2079       H  0.11278773  0.41482698  0.24422994     0.15200
H2080       H  0.13091155  0.41755435  0.34541035     0.14900
C2081       C  0.04279232  0.43248427  0.30773202    -0.17900
C2082       C  0.03210319  0.43401508  0.28817427    -0.20100
C2083       C  0.03102483  0.42922890  0.25373000     0.20500
C2084       C  0.04066517  0.42252985  0.23934442    -0.03000
C2085       C  0.05146222  0.42100303  0.25908689    -0.06100
C2086       C  0.05261345  0.42614003  0.29321820     0.20800
C2087       C  0.06121216  0.41461849  0.24423062     0.19000
C2088       C  0.05998941  0.40947063  0.21027321    -0.17600
C2089       C  0.04932323  0.41096500  0.19077382    -0.19800
C2090       C  0.03968105  0.41766334  0.20480807     0.20500
C2091       C  0.02930554  0.41993887  0.18431351    -0.32800
C2092       C  0.01984958  0.42722647  0.19755998     0.01200
C2093       C  0.02068568  0.43141747  0.23296413    -0.24100
C2094       C  0.06365071  0.42517497  0.31180790    -0.28700
C2095       C  0.07378018  0.41936193  0.29654950     0.06800
C2096       C  0.07217601  0.41379517  0.26291100    -0.27400
H2097       H  0.04346205  0.43648004  0.33396364     0.11600
H2098       H  0.02476705  0.43915925  0.29973825     0.12700
H2099       H  0.06738501  0.40447784  0.19847072     0.11800
H2100       H  0.04872460  0.40710182  0.16436047     0.11000
H2101       H  0.02901949  0.41630305  0.15777963     0.16400
H2102       H  0.01345764  0.43691200  0.24377760     0.12300
H2103       H  0.06424363  0.42927354  0.33776572     0.15200
H2104       H  0.07947184  0.40908656  0.25002200     0.14900
C2105       C  0.14183936  0.41389411  0.81791304    -0.17900
C2106       C  0.13045234  0.41348580  0.80141338    -0.20100
C2107       C  0.12938495  0.41520036  0.76464385     0.20500
C2108       C  0.13996214  0.41709985  0.74432145    -0.03000
C2109       C  0.15144600  0.41751078  0.76093810    -0.06100
C2110       C  0.15237440  0.41604572  0.79797148     0.20800
C2111       C  0.16196162  0.41970991  0.74056394     0.19000
C2112       C  0.16093437  0.42133505  0.70382902    -0.17600
C2113       C  0.14957389  0.42101294  0.68745732    -0.19800
C2114       C  0.13905880  0.41900160  0.70752073     0.20500
C2115       C  0.12764620  0.41933410  0.69147762    -0.32800
C2116       C  0.11693167  0.41778668  0.71135446     0.01200
C2117       C  0.11793343  0.41549974  0.74807889    -0.24100
C2118       C  0.16378079  0.41703427  0.81442497    -0.28700
C2119       C  0.17426255  0.41944443  0.79430548     0.06800
C2120       C  0.17328847  0.42056479  0.75732802    -0.27400
H2121       H  0.14238661  0.41270931  0.84637614     0.11600
H2122       H  0.12245832  0.41201470  0.81751794     0.12700
H2123       H  0.16890618  0.42304400  0.68781665     0.11800
H2124       H  0.14899751  0.42250368  0.65911746     0.11000
H2125       H  0.12705781  0.42141705  0.66343811     0.16400
H2126       H  0.10994131  0.41458835  0.76433900     0.12300
H2127       H  0.16449407  0.41597981  0.84291055     0.15200
H2128       H  0.18129932  0.42254994  0.74171744     0.14900
C2129       C  0.11739851  0.42070605  0.48855046    -0.17900
C2130       C  0.11692257  0.42005507  0.52548998    -0.20100
C2131       C  0.10574018  0.41904895  0.54289177     0.20500
C2132       C  0.09491768  0.41884165  0.52297537    -0.03000
C2133       C  0.09540022  0.41947915  0.48557101    -0.06100
C2134       C  0.10670166  0.42032847  0.46840047     0.20800
C2135       C  0.08460406  0.41926222  0.46540154     0.19000
C2136       C  0.07342402  0.41856720  0.48301980    -0.17600
C2137       C  0.07294405  0.41798271  0.52013713    -0.19800
C2138       C  0.08363430  0.41806194  0.54040580     0.20500
C2139       C  0.08325827  0.41749295  0.57771674    -0.32800
C2140       C  0.09403333  0.41760560  0.59772733     0.01200
C2141       C  0.10522678  0.41842176  0.57990021    -0.24100
C2142       C  0.10715447  0.42071854  0.43136271    -0.28700
C2143       C  0.09648646  0.42012667  0.41078795     0.06800
C2144       C  0.08520703  0.41963647  0.42806872    -0.27400
H2145       H  0.12614718  0.42142366  0.47571678     0.11600
H2146       H  0.12531196  0.42031309  0.54045920     0.12700
H2147       H  0.06503320  0.41843354  0.46807167     0.11800
H2148       H  0.06419354  0.41744180  0.53299977     0.11000
H2149       H  0.07460614  0.41701990  0.59117597     0.16400
H2150       H  0.11360850  0.41901966  0.59483355     0.12300
H2151       H  0.11589485  0.42158513  0.41854321     0.15200
H2152       H  0.07694346  0.41929782  0.41252513     0.14900
C2153       C  0.02662405  0.41789608  0.69538954    -0.17900
C2154       C  0.03827304  0.41754789  0.68084092    -0.20100
C2155       C  0.04850934  0.41963342  0.70223281     0.20500
C2156       C  0.04696357  0.42190146  0.73879687    -0.03000
C2157       C  0.03519310  0.42220192  0.75351332    -0.06100
C2158       C  0.02498542  0.42030497  0.73163283     0.20800
C2159       C  0.03364544  0.42458477  0.78997622     0.19000
C2160       C  0.04388342  0.42656764  0.81145485    -0.17600
C2161       C  0.05552772  0.42633150  0.79688051    -0.19800
C2162       C  0.05716117  0.42402431  0.76059748     0.20500
C2163       C  0.06880425  0.42390388  0.74573482    -0.32800
C2164       C  0.07046439  0.42166433  0.70926941     0.01200
C2165       C  0.06023746  0.41956208  0.68769816    -0.24100
C2166       C  0.01331179  0.42116172  0.74609505    -0.28700
C2167       C  0.01159601  0.42377880  0.78241919     0.06800
C2168       C  0.02190741  0.42518743  0.80422654    -0.27400
H2169       H  0.01887750  0.41638170  0.67818914     0.11600
H2170       H  0.03926836  0.41574984  0.65275992     0.12700
H2171       H  0.04288162  0.42843434  0.83949806     0.11800
H2172       H  0.06326626  0.42799372  0.81400363     0.11000
H2173       H  0.07657072  0.42581914  0.76253591     0.16400
H2174       H  0.06140181  0.41776305  0.65966989     0.12300
H2175       H  0.00561633  0.42024895  0.72846089     0.15200
H2176       H  0.02089364  0.42687833  0.83230087     0.14900
C2177       C  0.84155486  0.44219593  0.78634026    -0.17900
C2178       C  0.85272847  0.44146894  0.76909713    -0.20100
C2179       C  0.85333951  0.44135683  0.73193432     0.20500
C2180       C  0.84258220  0.44187791  0.71188009    -0.03000
C2181       C  0.83124047  0.44253391  0.72937843    -0.06100
C2182       C  0.83075248  0.44278110  0.76678581     0.20800
C2183       C  0.82042738  0.44303714  0.70950628     0.19000
C2184       C  0.82107718  0.44288531  0.67227601    -0.17600
C2185       C  0.83231618  0.44234394  0.65495488    -0.19800
C2186       C  0.84316891  0.44188158  0.67445585     0.20500
C2187       C  0.85457158  0.44150495  0.65736487    -0.32800
C2188       C  0.86537971  0.44094105  0.67732127     0.01200
C2189       C  0.86456174  0.44088436  0.71465819    -0.24100
C2190       C  0.81950995  0.44365475  0.78406739    -0.28700
C2191       C  0.80863394  0.44417851  0.76463931     0.06800
C2192       C  0.80920258  0.44378742  0.72721275    -0.27400
H2193       H  0.84137076  0.44234231  0.81504669     0.11600
H2194       H  0.86092363  0.44106735  0.78489281     0.12700
H2195       H  0.81287883  0.44326172  0.65649383     0.11800
H2196       H  0.83251381  0.44232276  0.62624948     0.11000
H2197       H  0.85502057  0.44156095  0.62868291     0.16400
H2198       H  0.87273548  0.44082389  0.73059653     0.12300
H2199       H  0.81923522  0.44375937  0.81277035     0.15200
H2200       H  0.80093477  0.44433679  0.71179799     0.14900
C2201       C  0.93182943  0.42315639  0.79001104    -0.17900
C2202       C  0.92110027  0.42527492  0.77117983    -0.20100
C2203       C  0.92140942  0.42797618  0.73479139     0.20500
C2204       C  0.93263659  0.42826192  0.71711608    -0.03000
C2205       C  0.94348246  0.42605176  0.73611974    -0.06100
C2206       C  0.94309806  0.42367184  0.77284584     0.20800
C2207       C  0.95473365  0.42685915  0.71870822     0.19000
C2208       C  0.95506220  0.42959101  0.68237025    -0.17600
C2209       C  0.94435416  0.43183808  0.66364966    -0.19800
C2210       C  0.93309915  0.43133054  0.68085080     0.20500
C2211       C  0.92237669  0.43424261  0.66266150    -0.32800
C2212       C  0.91100504  0.43387630  0.67974742     0.01200
C2213       C  0.91073743  0.43082753  0.71619313    -0.24100
C2214       C  0.95397626  0.42257553  0.79215080    -0.28700
C2215       C  0.96534757  0.42377433  0.77526965     0.06800
C2216       C  0.96549928  0.42566623  0.73822507    -0.27400
H2217       H  0.93132426  0.42136307  0.81820721     0.11600
H2218       H  0.91256143  0.42502271  0.78526557     0.12700
H2219       H  0.96363780  0.43028005  0.66857567     0.11800
H2220       H  0.94489829  0.43417176  0.63579475     0.11000
H2221       H  0.92296020  0.43719303  0.63531928     0.16400
H2222       H  0.90237738  0.43123283  0.73093084     0.12300
H2223       H  0.95345445  0.42169286  0.82063019     0.15200
H2224       H  0.97405956  0.42717280  0.72486061     0.14900
C2225       C  0.82616875  0.44157367  0.27577802    -0.17900
C2226       C  0.83776021  0.44149946  0.29110655    -0.20100
C2227       C  0.84817072  0.44198367  0.26979301     0.20500
C2228       C  0.84684645  0.44242590  0.23260171    -0.03000
C2229       C  0.83513215  0.44256240  0.21711881    -0.06100
C2230       C  0.82473426  0.44216030  0.23879659     0.20800
C2231       C  0.83384368  0.44323508  0.17996330     0.19000
C2232       C  0.84423861  0.44362119  0.15861722    -0.17600
C2233       C  0.85580648  0.44343387  0.17389704    -0.19800
C2234       C  0.85721929  0.44287903  0.21084980     0.20500
C2235       C  0.86881768  0.44296155  0.22636520    -0.32800
C2236       C  0.87027128  0.44271173  0.26349288     0.01200
C2237       C  0.85985398  0.44216838  0.28498152    -0.24100
C2238       C  0.81311971  0.44254502  0.22315375    -0.28700
C2239       C  0.81174560  0.44342639  0.18603230     0.06800
C2240       C  0.82221159  0.44364581  0.16475506    -0.27400
H2241       H  0.81831197  0.44126095  0.29290999     0.11600
H2242       H  0.83857860  0.44113371  0.31970699     0.12700
H2243       H  0.84342479  0.44413889  0.13003544     0.11800
H2244       H  0.86366403  0.44380510  0.15677163     0.11000
H2245       H  0.87671631  0.44361704  0.20945901     0.16400
H2246       H  0.86082376  0.44185390  0.31354725     0.12300
H2247       H  0.80517970  0.44253569  0.23996864     0.15200
H2248       H  0.82132930  0.44410982  0.13618625     0.14900
C2249       C  0.88256330  0.46247911  0.48981000    -0.17900
C2250       C  0.88303138  0.46280443  0.45270767    -0.20100
C2251       C  0.88628397  0.45237806  0.43332256     0.20500
C2252       C  0.88903563  0.44149373  0.45156416    -0.03000
C2253       C  0.88855575  0.44116356  0.48907444    -0.06100
C2254       C  0.88532222  0.45171431  0.50828785     0.20800
C2255       C  0.89150176  0.43033678  0.50732882     0.19000
C2256       C  0.89476151  0.41991365  0.48794172    -0.17600
C2257       C  0.89523313  0.42023839  0.45085282    -0.19800
C2258       C  0.89247074  0.43099932  0.43239520     0.20500
C2259       C  0.89332372  0.43151785  0.39521586    -0.32800
C2260       C  0.89079380  0.44240205  0.37680841     0.01200
C2261       C  0.88710532  0.45273644  0.39612984    -0.24100
C2262       C  0.88512547  0.45138566  0.54559763    -0.28700
C2263       C  0.88822191  0.44067027  0.56411469     0.06800
C2264       C  0.89132097  0.43016338  0.54461376    -0.27400
H2265       H  0.88010907  0.47068681  0.50408289     0.11600
H2266       H  0.88093432  0.47125640  0.43916800     0.12700
H2267       H  0.89704891  0.41151815  0.50149744     0.11800
H2268       H  0.89787921  0.41208910  0.43660517     0.11000
H2269       H  0.89609724  0.42348516  0.38060767     0.16400
H2270       H  0.88535151  0.46123303  0.38238138     0.12300
H2271       H  0.88299129  0.45962374  0.56018595     0.15200
H2272       H  0.89368631  0.42185213  0.55849716     0.14900
C2273       C  0.94601251  0.42356133  0.28236115    -0.17900
C2274       C  0.95746088  0.42244330  0.26700473    -0.20100
C2275       C  0.95977328  0.42720824  0.23313131     0.20500
C2276       C  0.95034786  0.43279386  0.21411828    -0.03000
C2277       C  0.93877038  0.43400239  0.22975750    -0.06100
C2278       C  0.93666284  0.42952487  0.26422802     0.20800
C2279       C  0.92944962  0.44002524  0.21139135     0.19000
C2280       C  0.93165161  0.44436461  0.17694017    -0.17600
C2281       C  0.94308657  0.44306770  0.16133483    -0.19800
C2282       C  0.95257784  0.43748546  0.17997000     0.20500
C2283       C  0.96431388  0.43686526  0.16549551    -0.32800
C2284       C  0.97407791  0.43194907  0.18507774     0.01200
C2285       C  0.97146402  0.42683056  0.21866574    -0.24100
C2286       C  0.92543860  0.43147574  0.28065564    -0.28700
C2287       C  0.91622774  0.43817715  0.26358260     0.06800
C2288       C  0.91827697  0.44201599  0.22828561    -0.27400
H2289       H  0.94456096  0.42001379  0.30882940     0.11600
H2290       H  0.96458351  0.41804986  0.28195618     0.12700
H2291       H  0.92459259  0.44897149  0.16229104     0.11800
H2292       H  0.94458289  0.44669732  0.13498036     0.11000
H2293       H  0.96569246  0.44050872  0.13925321     0.16400
H2294       H  0.97849177  0.42286135  0.23470540     0.12300
H2295       H  0.92432307  0.42810558  0.30724342     0.15200
H2296       H  0.91131384  0.44708938  0.21455081     0.14900
C2297       C  0.97204257  0.48292216  0.85772716    -0.17900
C2298       C  0.97167048  0.49566637  0.85669181    -0.20100
C2299       C  0.98092928  0.50235632  0.84000905     0.20500
C2300       C  0.99089501  0.49619364  0.82520126    -0.03000
C2301       C  0.99122644  0.48329325  0.82600502    -0.06100
C2302       C  0.98163989  0.47667436  0.84189182     0.20800
C2303       C  0.00086002  0.47701521  0.80970232     0.19000
C2304       C  0.01028624  0.48376903  0.79385978    -0.17600
C2305       C  0.01001240  0.49659151  0.79334270    -0.19800
C2306       C  0.00027460  0.50289293  0.80849316     0.20500
C2307       C  0.99949217  0.51571482  0.80622761    -0.32800
C2308       C  0.98928620  0.52176241  0.81957859     0.01200
C2309       C  0.98016885  0.51506940  0.83687630    -0.24100
C2310       C  0.98148366  0.46392015  0.84017210    -0.28700
C2311       C  0.99065242  0.45764788  0.82235340     0.06800
C2312       C  0.00055604  0.46414004  0.80817513    -0.27400
H2313       H  0.96465124  0.47793394  0.87009843     0.11600
H2314       H  0.96400957  0.50028479  0.86833680     0.12700
H2315       H  0.01775615  0.47913027  0.78125920     0.11800
H2316       H  0.01729246  0.50157258  0.78041130     0.11000
H2317       H  0.00648444  0.52092276  0.79264795     0.16400
H2318       H  0.97234651  0.51978737  0.84726923     0.12300
H2319       H  0.97389049  0.45883002  0.85118436     0.15200
H2320       H  0.00758943  0.45923515  0.79428591     0.14900
C2321       C  0.97101211  0.48466485  0.15963193    -0.17900
C2322       C  0.96863005  0.49718917  0.15984423    -0.20100
C2323       C  0.97812843  0.50575637  0.15691776     0.20500
C2324       C  0.99015172  0.50167611  0.15383672    -0.03000
C2325       C  0.99255211  0.48902153  0.15325794    -0.06100
C2326       C  0.98292164  0.48049765  0.15620103     0.20800
C2327       C  0.00457039  0.48490817  0.14995751     0.19000
C2328       C  0.01407128  0.49349380  0.14725811    -0.17600
C2329       C  0.01169612  0.50604253  0.14815643    -0.19800
C2330       C  0.99976819  0.51022475  0.15144161     0.20500
C2331       C  0.99729933  0.52279041  0.15245844    -0.32800
C2332       C  0.98529194  0.52698028  0.15480722     0.01200
C2333       C  0.97577432  0.51832128  0.15690745    -0.24100
C2334       C  0.98535518  0.46795581  0.15602425    -0.28700
C2335       C  0.99728715  0.46375935  0.15293542     0.06800
C2336       C  0.00686315  0.47229702  0.14975308    -0.27400
H2337       H  0.96352747  0.47822968  0.16206186     0.11600
H2338       H  0.95934786  0.50017787  0.16239129     0.12700
H2339       H  0.02335196  0.49050392  0.14467867     0.11800
H2340       H  0.01919363  0.51248183  0.14620870     0.11000
H2341       H  0.00480592  0.52922891  0.15192322     0.16400
H2342       H  0.96646301  0.52128524  0.15807779     0.12300
H2343       H  0.97795473  0.46147021  0.15927255     0.15200
H2344       H  0.01608498  0.46912617  0.14713137     0.14900
C2345       C  0.00913219  0.55821307  0.96529502    -0.17900
C2346       C  0.00830271  0.55875802  0.00250888    -0.20100
C2347       C  0.99703305  0.55759567  0.01961200     0.20500
C2348       C  0.98651949  0.55590860  0.99871283    -0.03000
C2349       C  0.98736103  0.55531920  0.96120794    -0.06100
C2350       C  0.99871617  0.55646425  0.94423755     0.20800
C2351       C  0.97679463  0.55352853  0.94074317     0.19000
C2352       C  0.96553407  0.55231288  0.95758671    -0.17600
C2353       C  0.96470265  0.55292797  0.99446975    -0.19800
C2354       C  0.97511817  0.55474648  0.01524549     0.20500
C2355       C  0.97425606  0.55535751  0.05226836    -0.32800
C2356       C  0.98460557  0.55708615  0.07366303     0.01200
C2357       C  0.99603688  0.55806903  0.05706213    -0.24100
C2358       C  0.99938046  0.55587810  0.90668516    -0.28700
C2359       C  0.98876694  0.55433550  0.88611848     0.06800
C2360       C  0.97758354  0.55298619  0.90374428    -0.27400
H2361       H  0.01794616  0.55914982  0.95298287     0.11600
H2362       H  0.01650195  0.56009026  0.01793144     0.12700
H2363       H  0.95733622  0.55091638  0.94218759     0.11800
H2364       H  0.95588406  0.55198407  0.00676969     0.11000
H2365       H  0.96544841  0.55422525  0.06453251     0.16400
H2366       H  0.00409074  0.55934436  0.07317860     0.12300
H2367       H  0.00805353  0.55681512  0.89352570     0.15200
H2368       H  0.96937337  0.55138861  0.88853323     0.14900
C2369       C  0.13930500  0.54482926  0.31680766    -0.17900
C2370       C  0.15094715  0.54442659  0.30221787    -0.20100
C2371       C  0.15255461  0.54428103  0.26532092     0.20500
C2372       C  0.14230230  0.54451458  0.24291558    -0.03000
C2373       C  0.13054400  0.54495259  0.25765644    -0.06100
C2374       C  0.12904240  0.54510760  0.29478670     0.20800
C2375       C  0.12030595  0.54519304  0.23524068     0.19000
C2376       C  0.12189539  0.54495478  0.19833567    -0.17600
C2377       C  0.13352870  0.54452478  0.18374679    -0.19800
C2378       C  0.14378737  0.54429548  0.20579337     0.20500
C2379       C  0.15548809  0.54383053  0.19135844    -0.32800
C2380       C  0.16578137  0.54355511  0.21345884     0.01200
C2381       C  0.16421553  0.54383791  0.25047379    -0.24100
C2382       C  0.11732494  0.54549732  0.30925140    -0.28700
C2383       C  0.10704237  0.54573367  0.28713733     0.06800
C2384       C  0.10866022  0.54557005  0.25007403    -0.27400
H2385       H  0.13832885  0.54491936  0.34537279     0.11600
H2386       H  0.15870624  0.54422102  0.31983462     0.12700
H2387       H  0.11413172  0.54510407  0.18072237     0.11800
H2388       H  0.13450050  0.54435155  0.15518151     0.11000
H2389       H  0.15656343  0.54384077  0.16282333     0.16400
H2390       H  0.17205506  0.54347423  0.26776103     0.12300
H2391       H  0.11624503  0.54569535  0.33775795     0.15200
H2392       H  0.10084935  0.54541468  0.23263758     0.14900
C2393       C  0.06955393  0.47258416  0.32937915    -0.17900
C2394       C  0.06738678  0.48514430  0.32782979    -0.20100
C2395       C  0.07707893  0.49355572  0.32797637     0.20500
C2396       C  0.08906805  0.48928581  0.32998336    -0.03000
C2397       C  0.09124849  0.47662645  0.33204224    -0.06100
C2398       C  0.08144279  0.46824184  0.33147489     0.20800
C2399       C  0.10323698  0.47236512  0.33424116     0.19000
C2400       C  0.11293387  0.48076595  0.33432995    -0.17600
C2401       C  0.11077713  0.49330665  0.33179034    -0.19800
C2402       C  0.09888315  0.49764776  0.32958550     0.20500
C2403       C  0.09665139  0.51019483  0.32671598    -0.32800
C2404       C  0.08471685  0.51457452  0.32515704     0.01200
C2405       C  0.07498141  0.50615214  0.32601241    -0.24100
C2406       C  0.08369747  0.45566344  0.33233614    -0.28700
C2407       C  0.09562208  0.45133903  0.33407859     0.06800
C2408       C  0.10533183  0.45977446  0.33570964    -0.27400
H2409       H  0.06192858  0.46626182  0.32887182     0.11600
H2410       H  0.05812564  0.48827792  0.32622149     0.12700
H2411       H  0.12219499  0.47762893  0.33595469     0.11800
H2412       H  0.11841425  0.49961375  0.33156229     0.11000
H2413       H  0.10427323  0.51647288  0.32498716     0.16400
H2414       H  0.06573894  0.50936097  0.32535698     0.12300
H2415       H  0.07616096  0.44928137  0.33045505     0.15200
H2416       H  0.11455413  0.45655876  0.33778767     0.14900
C2417       C  0.04956459  0.55171656  0.18979052    -0.17900
C2418       C  0.03867814  0.55341593  0.17135225    -0.20100
C2419       C  0.02791494  0.55583777  0.18969756     0.20500
C2420       C  0.02821631  0.55678070  0.22700490    -0.03000
C2421       C  0.03924012  0.55516009  0.24561395    -0.06100
C2422       C  0.04992981  0.55248508  0.22694002     0.20800
C2423       C  0.03945890  0.55578706  0.28293697     0.19000
C2424       C  0.02870563  0.55820103  0.30134065    -0.17600
C2425       C  0.01780975  0.55979601  0.28296260    -0.19800
C2426       C  0.01745313  0.55901586  0.24581742     0.20500
C2427       C  0.00645779  0.56008706  0.22733124    -0.32800
C2428       C  0.00596644  0.55902844  0.19001581     0.01200
C2429       C  0.01683646  0.55704453  0.17146871    -0.24100
C2430       C  0.06071088  0.55027249  0.24570540    -0.28700
C2431       C  0.06114049  0.55096005  0.28308783     0.06800
C2432       C  0.05030623  0.55360223  0.30133753    -0.27400
H2433       H  0.05769074  0.54967895  0.17496993     0.11600
H2434       H  0.03864667  0.55265215  0.14272128     0.12700
H2435       H  0.02868864  0.55871129  0.33002220     0.11800
H2436       H  0.00962208  0.56150250  0.29786544     0.11000
H2437       H  0.99822164  0.56123259  0.24241864     0.16400
H2438       H  0.01669745  0.55628877  0.14285487     0.12300
H2439       H  0.06869667  0.54761167  0.23111147     0.15200
H2440       H  0.05003588  0.55341056  0.32995767     0.14900
C2441       C  0.12754062  0.54773238  0.79414159    -0.17900
C2442       C  0.13847789  0.54745056  0.81298003    -0.20100
C2443       C  0.14959068  0.54784392  0.79499045     0.20500
C2444       C  0.14965492  0.54874862  0.75767219    -0.03000
C2445       C  0.13860968  0.54915400  0.73868878    -0.06100
C2446       C  0.12751296  0.54853604  0.75698994     0.20800
C2447       C  0.13868915  0.54971937  0.70135283     0.19000
C2448       C  0.14979165  0.55003770  0.68332346    -0.17600
C2449       C  0.16072096  0.54968925  0.70209294    -0.19800
C2450       C  0.16074556  0.54896390  0.73922353     0.20500
C2451       C  0.17166715  0.54818561  0.75809695    -0.32800
C2452       C  0.17172907  0.54719151  0.79531820     0.01200
C2453       C  0.16061872  0.54713710  0.81357267    -0.24100
C2454       C  0.11659290  0.54828299  0.73783213    -0.28700
C2455       C  0.11648689  0.54891150  0.70041287     0.06800
C2456       C  0.12769978  0.54949635  0.68256639    -0.27400
H2457       H  0.11909141  0.54721849  0.80864036     0.11600
H2458       H  0.13824050  0.54675061  0.84161210     0.12700
H2459       H  0.15002525  0.55043264  0.65463981     0.11800
H2460       H  0.16916433  0.54984826  0.68751697     0.11000
H2461       H  0.18011609  0.54800110  0.74358005     0.16400
H2462       H  0.16052065  0.54656954  0.84222942     0.12300
H2463       H  0.10820987  0.54696532  0.75220792     0.15200
H2464       H  0.12797463  0.54912477  0.65391965     0.14900
C2465       C  0.11297042  0.48920401  0.62343613    -0.17900
C2466       C  0.11312545  0.47645244  0.62456895    -0.20100
C2467       C  0.10285179  0.46987725  0.63569997     0.20500
C2468       C  0.09211037  0.47612932  0.64408320    -0.03000
C2469       C  0.09196518  0.48901158  0.64304615    -0.06100
C2470       C  0.10254774  0.49553946  0.63349003     0.20800
C2471       C  0.08146526  0.49536152  0.65341781     0.19000
C2472       C  0.07103317  0.48871354  0.66301216    -0.17600
C2473       C  0.07116503  0.47591253  0.66393925    -0.19800
C2474       C  0.08173960  0.46955210  0.65536845     0.20500
C2475       C  0.08237309  0.45682743  0.65983013    -0.32800
C2476       C  0.09332830  0.45076707  0.65398546     0.01200
C2477       C  0.10335270  0.45723228  0.64051111    -0.24100
C2478       C  0.10275887  0.50827331  0.63610027    -0.28700
C2479       C  0.09264455  0.51459222  0.64881894     0.06800
C2480       C  0.08183614  0.50819398  0.65591666    -0.27400
H2481       H  0.12113393  0.49412339  0.61587132     0.11600
H2482       H  0.12140395  0.47175363  0.61786186     0.12700
H2483       H  0.06288223  0.49342251  0.67086301     0.11800
H2484       H  0.06311321  0.47100357  0.67248459     0.11000
H2485       H  0.07464327  0.45179055  0.67016518     0.16400
H2486       H  0.11173053  0.45246505  0.63531948     0.12300
H2487       H  0.11102404  0.51327469  0.62991675     0.15200
H2488       H  0.07403171  0.51310791  0.66559056     0.14900
C2489       C  0.11017628  0.54810115  0.46581787    -0.17900
C2490       C  0.11159825  0.54817463  0.50274419    -0.20100
C2491       C  0.10143820  0.54836561  0.52509405     0.20500
C2492       C  0.08974393  0.54867283  0.51007218    -0.03000
C2493       C  0.08831117  0.54861358  0.47279452    -0.06100
C2494       C  0.09856653  0.54820918  0.45052906     0.20800
C2495       C  0.07659849  0.54871490  0.45786373     0.19000
C2496       C  0.06644833  0.54903643  0.48016424    -0.17600
C2497       C  0.06786500  0.54907791  0.51701667    -0.19800
C2498       C  0.07945853  0.54878824  0.53226545     0.20500
C2499       C  0.08091464  0.54837350  0.56926208    -0.32800
C2500       C  0.09251876  0.54784008  0.58452388     0.01200
C2501       C  0.10275191  0.54797389  0.56213956    -0.24100
C2502       C  0.09701248  0.54771900  0.41347702    -0.28700
C2503       C  0.08532851  0.54764467  0.39838174     0.06800
C2504       C  0.07519479  0.54824095  0.42093649    -0.27400
H2505       H  0.11816245  0.54782627  0.44921404     0.11600
H2506       H  0.12065539  0.54795227  0.51383409     0.12700
H2507       H  0.05738611  0.54913172  0.46908670     0.11800
H2508       H  0.05987243  0.54919724  0.53361233     0.11000
H2509       H  0.07299570  0.54838513  0.58616379     0.16400
H2510       H  0.11175415  0.54730689  0.57341882     0.12300
H2511       H  0.10489137  0.54736972  0.39647869     0.15200
H2512       H  0.06613464  0.54790798  0.40985623     0.14900
C2513       C  0.05595304  0.55209703  0.78415340    -0.17900
C2514       C  0.04443531  0.55308328  0.79926863    -0.20100
C2515       C  0.03399523  0.55207995  0.77812923     0.20500
C2516       C  0.03522462  0.55026791  0.74122943    -0.03000
C2517       C  0.04688657  0.54929814  0.72592256    -0.06100
C2518       C  0.05726734  0.55012447  0.74757156     0.20800
C2519       C  0.04814430  0.54733273  0.68911289     0.19000
C2520       C  0.03769265  0.54644171  0.66792697    -0.17600
C2521       C  0.02615005  0.54736994  0.68306773    -0.19800
C2522       C  0.02481290  0.54925229  0.71969959     0.20500
C2523       C  0.01326049  0.54995732  0.73521557    -0.32800
C2524       C  0.01191360  0.55161932  0.77212266     0.01200
C2525       C  0.02237496  0.55270586  0.79331038    -0.24100
C2526       C  0.06878902  0.54879761  0.73248373    -0.28700
C2527       C  0.07025873  0.54686713  0.69568046     0.06800
C2528       C  0.05979350  0.54619919  0.67421365    -0.27400
H2529       H  0.06385104  0.55280369  0.80116768     0.11600
H2530       H  0.04369439  0.55452066  0.82759327     0.12700
H2531       H  0.03843767  0.54493604  0.63963302     0.11800
H2532       H  0.01825070  0.54655470  0.66609967     0.11000
H2533       H  0.00530946  0.54884551  0.71858773     0.16400
H2534       H  0.02147980  0.55405805  0.82163706     0.12300
H2535       H  0.07657692  0.54897156  0.74993559     0.15200
H2536       H  0.06064682  0.54485681  0.64591396     0.14900
C2537       C  0.82481438  0.57187638  0.30546632    -0.17900
C2538       C  0.81343986  0.57159764  0.28894441    -0.20100
C2539       C  0.81246869  0.57268368  0.25197600     0.20500
C2540       C  0.82307512  0.57432227  0.23159774    -0.03000
C2541       C  0.83455800  0.57470039  0.24833904    -0.06100
C2542       C  0.83542762  0.57330838  0.28535336     0.20800
C2543       C  0.84517612  0.57594325  0.22785761     0.19000
C2544       C  0.84420190  0.57705809  0.19089815    -0.17600
C2545       C  0.83284816  0.57671831  0.17433022    -0.19800
C2546       C  0.82225027  0.57521777  0.19438420     0.20500
C2547       C  0.81088908  0.57429586  0.17776362    -0.32800
C2548       C  0.80029132  0.57243291  0.19772381     0.01200
C2549       C  0.80113774  0.57181769  0.23493928    -0.24100
C2550       C  0.84688901  0.57281296  0.30146862    -0.28700
C2551       C  0.85765366  0.57390391  0.28139063     0.06800
C2552       C  0.85659762  0.57550384  0.24439085    -0.27400
H2553       H  0.82531978  0.57078917  0.33397133     0.11600
H2554       H  0.80541249  0.57032738  0.30504467     0.12700
H2555       H  0.85224709  0.57800241  0.17470447     0.11800
H2556       H  0.83237229  0.57742921  0.14572236     0.11000
H2557       H  0.81031053  0.57493171  0.14914694     0.16400
H2558       H  0.79304853  0.57019805  0.25053546     0.12300
H2559       H  0.84739156  0.57087934  0.32957418     0.15200
H2560       H  0.86459289  0.57565872  0.22791053     0.14900
C2561       C  0.91019329  0.50425860  0.30066055    -0.17900
C2562       C  0.90826264  0.51686016  0.30294803    -0.20100
C2563       C  0.89663076  0.52136282  0.30953252     0.20500
C2564       C  0.88684597  0.51307140  0.31376358    -0.03000
C2565       C  0.88876973  0.50036681  0.31091492    -0.06100
C2566       C  0.90049803  0.49594634  0.30448385     0.20800
C2567       C  0.87893633  0.49211251  0.31414621     0.19000
C2568       C  0.86730834  0.49659804  0.32096683    -0.17600
C2569       C  0.86542162  0.50916837  0.32426034    -0.19800
C2570       C  0.87510647  0.51746939  0.32038604     0.20500
C2571       C  0.87320779  0.53009261  0.32234233    -0.32800
C2572       C  0.88284383  0.53842861  0.31719555     0.01200
C2573       C  0.89456650  0.53399570  0.31129382    -0.24100
C2574       C  0.90234064  0.48330625  0.30183281    -0.28700
C2575       C  0.89254073  0.47493050  0.30415342     0.06800
C2576       C  0.88084144  0.47952918  0.31014234    -0.27400
H2577       H  0.91926369  0.50101529  0.29557568     0.11600
H2578       H  0.91586984  0.52308749  0.29952167     0.12700
H2579       H  0.85965920  0.49038063  0.32368255     0.11800
H2580       H  0.85635198  0.51240765  0.32939090     0.11000
H2581       H  0.86417074  0.53344133  0.32741712     0.16400
H2582       H  0.90200072  0.54035853  0.30681572     0.12300
H2583       H  0.91148244  0.48010701  0.29814849     0.15200
H2584       H  0.87306852  0.47345551  0.31105970     0.14900
C2585       C  0.94791868  0.56395798  0.28027871    -0.17900
C2586       C  0.93685709  0.56537038  0.29794767    -0.20100
C2587       C  0.92617646  0.56767130  0.27889934     0.20500
C2588       C  0.92677277  0.56891498  0.24171252    -0.03000
C2589       C  0.93799076  0.56762212  0.22387769    -0.06100
C2590       C  0.94856568  0.56492295  0.24319274     0.20800
C2591       C  0.93851797  0.56857132  0.18663780     0.19000
C2592       C  0.92787098  0.57104321  0.16760385    -0.17600
C2593       C  0.91678636  0.57225943  0.18518606    -0.19800
C2594       C  0.91611246  0.57107671  0.22220428     0.20500
C2595       C  0.90491154  0.57164206  0.23981187    -0.32800
C2596       C  0.90409559  0.57018863  0.27700002     0.01200
C2597       C  0.91490332  0.56842591  0.29628282    -0.24100
C2598       C  0.95949791  0.56281765  0.22508493    -0.28700
C2599       C  0.96020764  0.56358263  0.18770765     0.06800
C2600       C  0.94953927  0.56657846  0.16888442    -0.27400
H2601       H  0.95595463  0.56193679  0.29563399     0.11600
H2602       H  0.93662009  0.56441520  0.32651511     0.12700
H2603       H  0.92807097  0.57182141  0.13898545     0.11800
H2604       H  0.90869457  0.57395433  0.16972475     0.11000
H2605       H  0.89679809  0.57271244  0.22403283     0.16400
H2606       H  0.91459096  0.56747721  0.32481355     0.12300
H2607       H  0.96741063  0.56014031  0.24011602     0.15200
H2608       H  0.94945593  0.56671989  0.14029146     0.14900
C2609       C  0.83677043  0.57320743  0.80248643    -0.17900
C2610       C  0.84814258  0.57297642  0.78600147    -0.20100
C2611       C  0.84906412  0.57237932  0.74889640     0.20500
C2612       C  0.83836385  0.57216987  0.72832408    -0.03000
C2613       C  0.82687398  0.57241404  0.74495636    -0.06100
C2614       C  0.82607377  0.57283193  0.78222509     0.20800
C2615       C  0.81619658  0.57193018  0.72427897     0.19000
C2616       C  0.81709422  0.57129670  0.68724102    -0.17600
C2617       C  0.82843806  0.57093345  0.67085478    -0.19800
C2618       C  0.83910964  0.57128271  0.69116760     0.20500
C2619       C  0.85046819  0.57031607  0.67490886    -0.32800
C2620       C  0.86132205  0.57050831  0.69486462     0.01200
C2621       C  0.86045021  0.57156225  0.73213476    -0.24100
C2622       C  0.81461351  0.57259095  0.79854505    -0.28700
C2623       C  0.80390003  0.57188600  0.77813635     0.06800
C2624       C  0.80481580  0.57174880  0.74094053    -0.27400
H2625       H  0.83634460  0.57352616  0.83115734     0.11600
H2626       H  0.85622686  0.57311314  0.80234074     0.12700
H2627       H  0.80900867  0.57089793  0.67092944     0.11800
H2628       H  0.82886074  0.57024784  0.64223477     0.11000
H2629       H  0.85080656  0.56887521  0.64651838     0.16400
H2630       H  0.86849321  0.57110849  0.74845110     0.12300
H2631       H  0.81405587  0.57287168  0.82719762     0.15200
H2632       H  0.79668416  0.57100270  0.72490911     0.14900
C2633       C  0.86492389  0.50831609  0.62707068    -0.17900
C2634       C  0.86592783  0.49557657  0.62694885    -0.20100
C2635       C  0.87724695  0.49008767  0.63172898     0.20500
C2636       C  0.88770893  0.49752316  0.63530164    -0.03000
C2637       C  0.88668752  0.51037592  0.63577370    -0.06100
C2638       C  0.87520875  0.51576690  0.63227111     0.20800
C2639       C  0.89709237  0.51780098  0.64098322     0.19000
C2640       C  0.90847428  0.51232443  0.64411441    -0.17600
C2641       C  0.90950069  0.49959208  0.64320576    -0.19800
C2642       C  0.89914720  0.49212530  0.63951326     0.20500
C2643       C  0.90002461  0.47936492  0.64084901    -0.32800
C2644       C  0.88957713  0.47183673  0.63928663     0.01200
C2645       C  0.87822897  0.47732394  0.63407283    -0.24100
C2646       C  0.87415317  0.52847314  0.63535524    -0.28700
C2647       C  0.88438108  0.53587115  0.64264173     0.06800
C2648       C  0.89587324  0.53051343  0.64433706    -0.27400
H2649       H  0.85605323  0.51233369  0.62405024     0.11600
H2650       H  0.85781492  0.49001372  0.62377804     0.12700
H2651       H  0.91656130  0.51787956  0.64791363     0.11800
H2652       H  0.91836867  0.49557456  0.64627191     0.11000
H2653       H  0.90890361  0.47536282  0.64343284     0.16400
H2654       H  0.87006059  0.47177903  0.63307661     0.12300
H2655       H  0.86529376  0.53257468  0.63304401     0.15200
H2656       H  0.90378743  0.53613115  0.65006018     0.14900
C2657       C  0.86143508  0.56752265  0.47017433    -0.17900
C2658       C  0.86182713  0.56741985  0.50716515    -0.20100
C2659       C  0.87292504  0.56855317  0.52511007     0.20500
C2660       C  0.88375234  0.56983067  0.50565582    -0.03000
C2661       C  0.88335374  0.56993835  0.46810926    -0.06100
C2662       C  0.87213369  0.56875965  0.45045825     0.20800
C2663       C  0.89414543  0.57108601  0.44828281     0.19000
C2664       C  0.90523145  0.57225563  0.46647217    -0.17600
C2665       C  0.90562910  0.57213283  0.50372783    -0.19800
C2666       C  0.89494935  0.57084976  0.52367463     0.20500
C2667       C  0.89522739  0.57047762  0.56116859    -0.32800
C2668       C  0.88440418  0.56930898  0.58068264     0.01200
C2669       C  0.87333115  0.56829890  0.56218610    -0.24100
C2670       C  0.87174764  0.56874050  0.41337830    -0.28700
C2671       C  0.88239355  0.56994509  0.39305883     0.06800
C2672       C  0.89361865  0.57099559  0.41077550    -0.27400
H2673       H  0.85274599  0.56660234  0.45696019     0.11600
H2674       H  0.85343490  0.56641602  0.52176231     0.12700
H2675       H  0.91362358  0.57320481  0.45186906     0.11800
H2676       H  0.91431894  0.57298478  0.51694866     0.11000
H2677       H  0.90380123  0.57115550  0.57512026     0.16400
H2678       H  0.86495416  0.56699869  0.57669635     0.12300
H2679       H  0.86306683  0.56753744  0.40027836     0.15200
H2680       H  0.90187150  0.57186722  0.39545489     0.14900
C2681       C  0.94046496  0.56549809  0.66804480    -0.17900
C2682       C  0.95191606  0.56405354  0.68373070    -0.20100
C2683       C  0.95304157  0.56180825  0.72027990     0.20500
C2684       C  0.94246884  0.56125074  0.74118142    -0.03000
C2685       C  0.93091002  0.56283163  0.72540955    -0.06100
C2686       C  0.92986977  0.56480145  0.68856429     0.20800
C2687       C  0.92038427  0.56213804  0.74644760     0.19000
C2688       C  0.92147079  0.55999271  0.78298260    -0.17600
C2689       C  0.93285371  0.55824858  0.79841840    -0.19800
C2690       C  0.94338807  0.55874147  0.77769757     0.20500
C2691       C  0.95476057  0.55643988  0.79282743    -0.32800
C2692       C  0.96550663  0.55702811  0.77260138     0.01200
C2693       C  0.96448370  0.55978958  0.73606383    -0.24100
C2694       C  0.91827452  0.56582339  0.67290899    -0.28700
C2695       C  0.90769079  0.56503855  0.69372212     0.06800
C2696       C  0.90892778  0.56329979  0.73059480    -0.27400
H2697       H  0.93989533  0.56704760  0.63973890     0.11600
H2698       H  0.95989791  0.56452300  0.66712427     0.12700
H2699       H  0.91348597  0.55945983  0.79956932     0.11800
H2700       H  0.93340605  0.55639624  0.82657953     0.11000
H2701       H  0.95521439  0.55389874  0.82055041     0.16400
H2702       H  0.97241254  0.55984539  0.71934500     0.12300
H2703       H  0.91750175  0.56722553  0.64457710     0.15200
H2704       H  0.90093300  0.56237343  0.74699801     0.14900
C2705       C  0.57412532  0.99295932  0.03653106    -0.17900
C2706       C  0.57425310  0.99257508  0.99944350    -0.20100
C2707       C  0.56414704  0.99636612  0.97983458     0.20500
C2708       C  0.55391718  0.00085994  0.99778308    -0.03000
C2709       C  0.55378653  0.00124285  0.03526844    -0.06100
C2710       C  0.56388609  0.99713449  0.05470950     0.20800
C2711       C  0.54341777  0.00538454  0.05325739     0.19000
C2712       C  0.53339398  0.00938200  0.03361798    -0.17600
C2713       C  0.53352626  0.00901204  0.99651865    -0.19800
C2714       C  0.54368402  0.00463576  0.97834736     0.20500
C2715       C  0.54362692  0.00359697  0.94120457    -0.32800
C2716       C  0.55364721  0.99876877  0.92311062     0.01200
C2717       C  0.56397200  0.99541697  0.94269456    -0.24100
C2718       C  0.56343342  0.99690378  0.09192613    -0.28700
C2719       C  0.55294275  0.00055444  0.11014265     0.06800
C2720       C  0.54307284  0.00504005  0.09049182    -0.27400
H2721       H  0.58196895  0.98978506  0.05102139     0.11600
H2722       H  0.58219397  0.98911794  0.98610120     0.12700
H2723       H  0.52535955  0.01260975  0.04697355     0.11800
H2724       H  0.52559389  0.01196738  0.98203935     0.11000
H2725       H  0.53552961  0.00600598  0.92664617     0.16400
H2726       H  0.57180835  0.99184116  0.92908877     0.12300
H2727       H  0.57115880  0.99358399  0.10668266     0.15200
H2728       H  0.53484305  0.00766726  0.10392362     0.14900
C2729       C  0.56837217  0.15037474  0.19723616    -0.17900
C2730       C  0.56821318  0.13916055  0.21512753    -0.20100
C2731       C  0.56576359  0.13864505  0.25162270     0.20500
C2732       C  0.56386490  0.14960124  0.27044250    -0.03000
C2733       C  0.56412323  0.16095370  0.25242531    -0.06100
C2734       C  0.56615777  0.16130715  0.21551526     0.20800
C2735       C  0.56196727  0.17189624  0.27114850     0.19000
C2736       C  0.55973936  0.17140279  0.30774016    -0.17600
C2737       C  0.55932155  0.16015501  0.32544044    -0.19800
C2738       C  0.56122314  0.14919150  0.30694812     0.20500
C2739       C  0.55998035  0.13782783  0.32400116    -0.32800
C2740       C  0.56139624  0.12672486  0.30533475     0.01200
C2741       C  0.56461212  0.12733294  0.26910884    -0.24100
C2742       C  0.56567035  0.17253380  0.19743679    -0.28700
C2743       C  0.56339478  0.18345837  0.21583800     0.06800
C2744       C  0.56175654  0.18308408  0.25281377    -0.27400
H2745       H  0.57003668  0.15047229  0.16895022     0.11600
H2746       H  0.56973141  0.13084784  0.20020950     0.12700
H2747       H  0.55807656  0.17970483  0.32256700     0.11800
H2748       H  0.55730812  0.16001938  0.35352888     0.11000
H2749       H  0.55725447  0.13760237  0.35157239     0.16400
H2750       H  0.56547064  0.11913465  0.25345666     0.12300
H2751       H  0.56702635  0.17278101  0.16899732     0.15200
H2752       H  0.55985187  0.19144882  0.26709881     0.14900
C2753       C  0.55132982  0.06581927  0.21335273    -0.17900
C2754       C  0.55074212  0.05418706  0.19766854    -0.20100
C2755       C  0.55198983  0.04358995  0.21833210     0.20500
C2756       C  0.55403071  0.04480017  0.25512348    -0.03000
C2757       C  0.55464338  0.05656411  0.27100038    -0.06100
C2758       C  0.55321054  0.06711363  0.25003467     0.20800
C2759       C  0.55651345  0.05774563  0.30791675     0.19000
C2760       C  0.55804481  0.04716932  0.32841450    -0.17600
C2761       C  0.55742362  0.03555570  0.31273463    -0.19800
C2762       C  0.55529214  0.03426044  0.27618937     0.20500
C2763       C  0.55422671  0.02260232  0.26058268    -0.32800
C2764       C  0.55210000  0.02118119  0.22383244     0.01200
C2765       C  0.55112461  0.03183818  0.20292654    -0.24100
C2766       C  0.55353336  0.07874279  0.26615458    -0.28700
C2767       C  0.55517844  0.08003021  0.30313049     0.06800
C2768       C  0.55668290  0.06944026  0.32374581    -0.27400
H2769       H  0.55022825  0.07381590  0.19677907     0.11600
H2770       H  0.54919848  0.05348167  0.16936604     0.12700
H2771       H  0.55959149  0.04786844  0.35671269     0.11800
H2772       H  0.55850639  0.02755878  0.32931774     0.11000
H2773       H  0.55475860  0.01465570  0.27754141     0.16400
H2774       H  0.54975212  0.03107240  0.17460295     0.12300
H2775       H  0.55219106  0.08679666  0.24996616     0.15200
H2776       H  0.55805232  0.07030774  0.35209387     0.14900
C2777       C  0.56205723  0.14797852  0.82125316    -0.17900
C2778       C  0.56089809  0.13632489  0.80626344    -0.20100
C2779       C  0.55945952  0.13490746  0.76951487     0.20500
C2780       C  0.55919250  0.14534553  0.74762760    -0.03000
C2781       C  0.56030122  0.15715711  0.76282713    -0.06100
C2782       C  0.56171057  0.15844136  0.79981262     0.20800
C2783       C  0.55988727  0.16765574  0.74112513     0.19000
C2784       C  0.55845790  0.16620007  0.70433317    -0.17600
C2785       C  0.55741576  0.15449155  0.68926115    -0.19800
C2786       C  0.55774608  0.14398631  0.71066339     0.20500
C2787       C  0.55669075  0.13217108  0.69581749    -0.32800
C2788       C  0.55699727  0.12166144  0.71748205     0.01200
C2789       C  0.55826646  0.12321831  0.75442361    -0.24100
C2790       C  0.56251770  0.17014846  0.81489881    -0.28700
C2791       C  0.56173876  0.18070469  0.79378209     0.06800
C2792       C  0.56064821  0.17938105  0.75671463    -0.27400
H2793       H  0.56312091  0.14881057  0.84971331     0.11600
H2794       H  0.56112880  0.12840351  0.82346330     0.12700
H2795       H  0.55809457  0.17412784  0.68718723     0.11800
H2796       H  0.55630530  0.15365770  0.66082009     0.11000
H2797       H  0.55582540  0.13120516  0.66736301     0.16400
H2798       H  0.55816473  0.11533400  0.77175400     0.12300
H2799       H  0.56362255  0.17102697  0.84333786     0.15200
H2800       H  0.55993640  0.18743728  0.74017879     0.14900
C2801       C  0.57933642  0.10535864  0.49342331    -0.17900
C2802       C  0.57935640  0.10487983  0.53060999    -0.20100
C2803       C  0.56855946  0.10274905  0.54936795     0.20500
C2804       C  0.55761231  0.10124033  0.53029290    -0.03000
C2805       C  0.55763580  0.10146440  0.49274087    -0.06100
C2806       C  0.56854653  0.10355504  0.47416672     0.20800
C2807       C  0.54673098  0.09956469  0.47382622     0.19000
C2808       C  0.53587654  0.09777035  0.49250146    -0.17600
C2809       C  0.53582057  0.09774392  0.52958377    -0.19800
C2810       C  0.54663698  0.09937874  0.54870375     0.20500
C2811       C  0.54667172  0.09898265  0.58587796    -0.32800
C2812       C  0.55755532  0.10003642  0.60507870     0.01200
C2813       C  0.56849530  0.10194812  0.58672481    -0.24100
C2814       C  0.56844340  0.10384361  0.43676427    -0.28700
C2815       C  0.55760505  0.10179029  0.41769825     0.06800
C2816       C  0.54682086  0.09959265  0.43659440    -0.27400
H2817       H  0.58780014  0.10702704  0.47969618     0.11600
H2818       H  0.58783854  0.10615286  0.54470626     0.12700
H2819       H  0.52740939  0.09638408  0.47840095     0.11800
H2820       H  0.52731813  0.09630982  0.54333147     0.11000
H2821       H  0.53824230  0.09743499  0.59992383     0.16400
H2822       H  0.57689142  0.10281971  0.60150913     0.12300
H2823       H  0.57677820  0.10562500  0.42246567     0.15200
H2824       H  0.53836969  0.09831199  0.42232988     0.14900
C2825       C  0.55896071  0.05123747  0.82855097    -0.17900
C2826       C  0.56035653  0.06243833  0.81086429    -0.20100
C2827       C  0.56058162  0.06292261  0.77362991     0.20500
C2828       C  0.55961066  0.05196568  0.75411855    -0.03000
C2829       C  0.55812766  0.04065243  0.77197070    -0.06100
C2830       C  0.55769875  0.04028130  0.80939260     0.20800
C2831       C  0.55677720  0.02975912  0.75230283     0.19000
C2832       C  0.55700596  0.03021391  0.71512712    -0.17600
C2833       C  0.55838646  0.04139673  0.69752478    -0.19800
C2834       C  0.55961655  0.05234053  0.71674857     0.20500
C2835       C  0.56022328  0.06366352  0.69917045    -0.32800
C2836       C  0.56083901  0.07479472  0.71816197     0.01200
C2837       C  0.56112577  0.07420529  0.75566705    -0.24100
C2838       C  0.55590763  0.02900270  0.82688681    -0.28700
C2839       C  0.55465146  0.01808232  0.80738707     0.06800
C2840       C  0.55506471  0.01861096  0.77005036    -0.27400
H2841       H  0.55870382  0.05116961  0.85725244     0.11600
H2842       H  0.56108085  0.07076231  0.82635805     0.12700
H2843       H  0.55597263  0.02192121  0.69961594     0.11800
H2844       H  0.55832290  0.04149967  0.66881071     0.11000
H2845       H  0.55932743  0.06381356  0.67058730     0.16400
H2846       H  0.56089434  0.08249995  0.77125031     0.12300
H2847       H  0.55565007  0.02870405  0.85558335     0.15200
H2848       H  0.55383346  0.01032407  0.75461353     0.14900
C2849       C  0.54660736  0.85443287  0.80899595    -0.17900
C2850       C  0.54585167  0.84268031  0.82353696    -0.20100
C2851       C  0.54529600  0.83234925  0.80143948     0.20500
C2852       C  0.54531849  0.83388848  0.76431743    -0.03000
C2853       C  0.54605602  0.84576402  0.74963099    -0.06100
C2854       C  0.54681435  0.85606531  0.77209522     0.20800
C2855       C  0.54611892  0.84731170  0.71249957     0.19000
C2856       C  0.54527085  0.83699318  0.69043503    -0.17600
C2857       C  0.54457356  0.82523231  0.70497231    -0.19800
C2858       C  0.54471322  0.82356528  0.74185418     0.20500
C2859       C  0.54430995  0.81177077  0.75663865    -0.32800
C2860       C  0.54440644  0.81015544  0.79362670     0.01200
C2861       C  0.54481029  0.82051551  0.81580648    -0.24100
C2862       C  0.54776685  0.86780926  0.75729801    -0.28700
C2863       C  0.54798826  0.86944744  0.72024562     0.06800
C2864       C  0.54708194  0.85912575  0.69807622    -0.27400
H2865       H  0.54710840  0.86224853  0.82663742     0.11600
H2866       H  0.54578577  0.84166729  0.85210036     0.12700
H2867       H  0.54523038  0.83801214  0.66187560     0.11800
H2868       H  0.54401595  0.81742333  0.68732593     0.11000
H2869       H  0.54374900  0.80385445  0.73938040     0.16400
H2870       H  0.54496705  0.81937307  0.84433287     0.12300
H2871       H  0.54811025  0.87568883  0.77472232     0.15200
H2872       H  0.54729002  0.86025176  0.66956021     0.14900
C2873       C  0.55620426  0.96004621  0.71951408    -0.17900
C2874       C  0.55615910  0.94888397  0.70159430    -0.20100
C2875       C  0.55784281  0.93794475  0.72019620     0.20500
C2876       C  0.56012352  0.93826804  0.75696084    -0.03000
C2877       C  0.56022728  0.94959346  0.77510821    -0.06100
C2878       C  0.55798173  0.96045348  0.75630285     0.20800
C2879       C  0.56180565  0.94997122  0.81222277     0.19000
C2880       C  0.56373348  0.93899277  0.83063187    -0.17600
C2881       C  0.56357953  0.92775065  0.81264826    -0.19800
C2882       C  0.56152425  0.92726138  0.77587692     0.20500
C2883       C  0.56008151  0.91598451  0.75811662    -0.32800
C2884       C  0.55723742  0.91557139  0.72151524     0.01200
C2885       C  0.55647357  0.92669975  0.70290268    -0.24100
C2886       C  0.55683959  0.97147626  0.77466156    -0.28700
C2887       C  0.55810691  0.97208352  0.81182357     0.06800
C2888       C  0.56075780  0.96119917  0.83038898    -0.27400
H2889       H  0.55450511  0.96834042  0.70471282     0.11600
H2890       H  0.55441197  0.94877803  0.67332202     0.12700
H2891       H  0.56500591  0.93906108  0.85911396     0.11800
H2892       H  0.56472033  0.91940718  0.82769070     0.11000
H2893       H  0.56031336  0.90769498  0.77361762     0.16400
H2894       H  0.55386160  0.92664690  0.67519753     0.12300
H2895       H  0.55422249  0.97953197  0.75994823     0.15200
H2896       H  0.56124255  0.96120316  0.85900309     0.14900
C2897       C  0.54381092  0.85881511  0.21168677    -0.17900
C2898       C  0.54276911  0.84764231  0.19376049    -0.20100
C2899       C  0.54271639  0.83657644  0.21256130     0.20500
C2900       C  0.54356138  0.83679697  0.24988826    -0.03000
C2901       C  0.54463365  0.84811215  0.26804886    -0.06100
C2902       C  0.54484563  0.85914528  0.24877038     0.20800
C2903       C  0.54552270  0.84838166  0.30539496     0.19000
C2904       C  0.54523503  0.83730004  0.32419444    -0.17600
C2905       C  0.54418676  0.82609610  0.30620896    -0.19800
C2906       C  0.54341994  0.82572929  0.26902687     0.20500
C2907       C  0.54257625  0.81451539  0.25066343    -0.32800
C2908       C  0.54194504  0.81417972  0.21326069     0.01200
C2909       C  0.54195468  0.82532361  0.19458691    -0.24100
C2910       C  0.54606216  0.87033079  0.26680319    -0.28700
C2911       C  0.54707926  0.87076404  0.30406105     0.06800
C2912       C  0.54668911  0.85970276  0.32318168    -0.27400
H2913       H  0.54388204  0.86721393  0.19648195     0.11600
H2914       H  0.54206635  0.84765859  0.16511235     0.12700
H2915       H  0.54586648  0.83728941  0.35285345     0.11800
H2916       H  0.54404620  0.81769882  0.32141558     0.11000
H2917       H  0.54231190  0.80606883  0.26561029     0.16400
H2918       H  0.54166145  0.82529882  0.16590474     0.12300
H2919       H  0.54595574  0.87874856  0.25169860     0.15200
H2920       H  0.54742041  0.85988832  0.35181960     0.14900
C2921       C  0.57185343  0.89770850  0.53253702    -0.17900
C2922       C  0.57181641  0.89763300  0.49537300    -0.20100
C2923       C  0.56141254  0.89397334  0.47645676     0.20500
C2924       C  0.55102163  0.89014426  0.49530430    -0.03000
C2925       C  0.55105407  0.89023786  0.53287331    -0.06100
C2926       C  0.56149219  0.89411685  0.55157070     0.20800
C2927       C  0.54055571  0.88670097  0.55166068     0.19000
C2928       C  0.53018798  0.88293948  0.53278323    -0.17600
C2929       C  0.53016358  0.88282177  0.49566720    -0.19800
C2930       C  0.54049268  0.88650120  0.47665664     0.20500
C2931       C  0.54031473  0.88697853  0.43940429    -0.32800
C2932       C  0.55048772  0.89115929  0.42024515     0.01200
C2933       C  0.56110362  0.89440274  0.43912902    -0.24100
C2934       C  0.56132568  0.89453524  0.58888293    -0.28700
C2935       C  0.55080691  0.89123751  0.60796326     0.06800
C2936       C  0.54049456  0.88723761  0.58891668    -0.27400
H2937       H  0.57996062  0.90071567  0.54640495     0.11600
H2938       H  0.57989080  0.90059812  0.48141256     0.12700
H2939       H  0.52203793  0.88019392  0.54674113     0.11800
H2940       H  0.52199081  0.88000278  0.48180578     0.11000
H2941       H  0.53199790  0.88467209  0.42553866     0.16400
H2942       H  0.56906242  0.89749770  0.42483668     0.12300
H2943       H  0.56938017  0.89753453  0.60300862     0.15200
H2944       H  0.53221428  0.88496982  0.60287020     0.14900
C2945       C  0.56570044  0.96007771  0.30547343    -0.17900
C2946       C  0.56554140  0.94869934  0.32260069    -0.20100
C2947       C  0.56133838  0.93815454  0.30492053     0.20500
C2948       C  0.55778677  0.93905162  0.26908429    -0.03000
C2949       C  0.55795956  0.95055256  0.25175777    -0.06100
C2950       C  0.56166180  0.96116947  0.27027930     0.20800
C2951       C  0.55383210  0.95149976  0.21650616     0.19000
C2952       C  0.55006104  0.94090760  0.19833557    -0.17600
C2953       C  0.54984689  0.92956462  0.21547946    -0.19800
C2954       C  0.55343130  0.92859417  0.25108338     0.20500
C2955       C  0.55208374  0.91749994  0.26942439    -0.32800
C2956       C  0.55502339  0.91651810  0.30578532     0.01200
C2957       C  0.56000869  0.92692541  0.32299148    -0.24100
C2958       C  0.56065866  0.97273814  0.25404737    -0.28700
C2959       C  0.55584306  0.97389132  0.21944259     0.06800
C2960       C  0.55290933  0.96306569  0.20063014    -0.27400
H2961       H  0.56865697  0.96809633  0.32014708     0.11600
H2962       H  0.56837980  0.94821910  0.35006559     0.12700
H2963       H  0.54691640  0.94145152  0.17116313     0.11800
H2964       H  0.54654170  0.92160240  0.20116321     0.11000
H2965       H  0.54800363  0.90974603  0.25581972     0.16400
H2966       H  0.56213095  0.92669103  0.35091553     0.12300
H2967       H  0.56298573  0.98072921  0.26951073     0.15200
H2968       H  0.54914003  0.96372567  0.17414491     0.14900
C2969       C  0.49660176  0.97464440  0.87862423    -0.17900
C2970       C  0.48395453  0.97450895  0.87890929    -0.20100
C2971       C  0.47750100  0.98483015  0.86805641     0.20500
C2972       C  0.48381415  0.99557019  0.85811266    -0.03000
C2973       C  0.49661579  0.99571230  0.85787231    -0.06100
C2974       C  0.50298869  0.98510932  0.86752933     0.20800
C2975       C  0.50301787  0.00629840  0.84689339     0.19000
C2976       C  0.49650713  0.01675589  0.83727745    -0.17600
C2977       C  0.48379607  0.01660874  0.83745432    -0.19800
C2978       C  0.47734567  0.00600635  0.84730170     0.20500
C2979       C  0.46459395  0.00547042  0.84536239    -0.32800
C2980       C  0.45836053  0.99454799  0.85345766     0.01200
C2981       C  0.46485846  0.98442130  0.86577526    -0.24100
C2982       C  0.51561860  0.98499194  0.86481499    -0.28700
C2983       C  0.52205558  0.99528317  0.85236806     0.06800
C2984       C  0.51575919  0.00606211  0.84456067    -0.27400
H2985       H  0.50138784  0.96646438  0.88634038     0.11600
H2986       H  0.47921606  0.96622883  0.88683604     0.12700
H2987       H  0.50124473  0.02498073  0.82890761     0.11800
H2988       H  0.47900789  0.02472305  0.82920683     0.11000
H2989       H  0.45958001  0.01330346  0.83598653     0.16400
H2990       H  0.46004210  0.97607263  0.87274894     0.12300
H2991       H  0.52046519  0.97675181  0.87169925     0.15200
H2992       H  0.52070682  0.01402372  0.83511141     0.14900
C2993       C  0.49448186  0.01788765  0.19594503    -0.17900
C2994       C  0.48179550  0.01730563  0.19662994    -0.20100
C2995       C  0.47561157  0.00670089  0.18536331     0.20500
C2996       C  0.48227797  0.99676247  0.17198020    -0.03000
C2997       C  0.49504986  0.99735770  0.17122879    -0.06100
C2998       C  0.50120712  0.00787990  0.18395371     0.20800
C2999       C  0.50165922  0.98719399  0.15923289     0.19000
C3000       C  0.49550510  0.97677776  0.14659101    -0.17600
C3001       C  0.48287073  0.97618613  0.14735580    -0.19800
C3002       C  0.47621615  0.98600542  0.16074722     0.20500
C3003       C  0.46365117  0.98504093  0.16446306    -0.32800
C3004       C  0.45703065  0.99463914  0.17938546     0.01200
C3005       C  0.46295273  0.00562666  0.18859368    -0.24100
C3006       C  0.51393768  0.00793989  0.18605232    -0.28700
C3007       C  0.52044673  0.99750158  0.17634416     0.06800
C3008       C  0.51429439  0.98737277  0.16170857    -0.27400
H3009       H  0.49904245  0.02605201  0.20566712     0.11600
H3010       H  0.47683241  0.02503765  0.20683389     0.12700
H3011       H  0.50047505  0.96894382  0.13707977     0.11800
H3012       H  0.47831736  0.96791264  0.13839096     0.11000
H3013       H  0.45901786  0.97666506  0.15662976     0.16400
H3014       H  0.45780300  0.01304833  0.19993819     0.12300
H3015       H  0.51871336  0.01576379  0.19720788     0.15200
H3016       H  0.51936174  0.97940938  0.15356283     0.14900
C3017       C  0.40540197  0.98754673  0.99827814    -0.17900
C3018       C  0.40518024  0.98744540  0.03537691    -0.20100
C3019       C  0.41506326  0.99202407  0.05497336     0.20500
C3020       C  0.42521718  0.99686829  0.03694369    -0.03000
C3021       C  0.42545114  0.99695109  0.99945300    -0.06100
C3022       C  0.41552021  0.99220809  0.98007612     0.20800
C3023       C  0.43572504  0.00152928  0.98141424     0.19000
C3024       C  0.44559025  0.00614045  0.00101268    -0.17600
C3025       C  0.44535644  0.00606468  0.03811323    -0.19800
C3026       C  0.43525084  0.00138092  0.05633303     0.20500
C3027       C  0.43515933  0.00082694  0.09353686    -0.32800
C3028       C  0.42517472  0.99579353  0.11184184     0.01200
C3029       C  0.41507505  0.99158883  0.09221523    -0.24100
C3030       C  0.41599574  0.99192092  0.94289473    -0.28700
C3031       C  0.42638155  0.99607018  0.92462537     0.06800
C3032       C  0.43611832  0.00107455  0.94418802    -0.27400
H3033       H  0.39770787  0.98383477  0.98380940     0.11600
H3034       H  0.39731910  0.98366278  0.04875132     0.12700
H3035       H  0.45355983  0.00967966  0.98763743     0.11800
H3036       H  0.45315189  0.00955208  0.05257862     0.11000
H3037       H  0.44313609  0.00382036  0.10802752     0.16400
H3038       H  0.40728453  0.98778244  0.10587802     0.12300
H3039       H  0.40833542  0.98823543  0.92822720     0.15200
H3040       H  0.44425979  0.00409396  0.93068059     0.14900
C3041       C  0.41168704  0.14522840  0.27573166    -0.17900
C3042       C  0.41261388  0.15658132  0.25846870    -0.20100
C3043       C  0.42392846  0.16116185  0.24732312     0.20500
C3044       C  0.43438727  0.15417462  0.25372724    -0.03000
C3045       C  0.43348792  0.14284726  0.27176374    -0.06100
C3046       C  0.42207402  0.13828407  0.28265732     0.20800
C3047       C  0.44404149  0.13608848  0.27883343     0.19000
C3048       C  0.45532399  0.14054770  0.26735177    -0.17600
C3049       C  0.45618144  0.15162177  0.24903118    -0.19800
C3050       C  0.44579110  0.15851154  0.24219540     0.20500
C3051       C  0.44666518  0.16969193  0.22420641    -0.32800
C3052       C  0.43641066  0.17685824  0.21806269     0.01200
C3053       C  0.42501813  0.17255861  0.22991501    -0.24100
C3054       C  0.42131359  0.12689350  0.30023394    -0.28700
C3055       C  0.43188444  0.12026621  0.30786184     0.06800
C3056       C  0.44316542  0.12495512  0.29709385    -0.27400
H3057       H  0.40284021  0.14191467  0.28386889     0.11600
H3058       H  0.40446144  0.16176354  0.25372879     0.12700
H3059       H  0.46350067  0.13544413  0.27247749     0.11800
H3060       H  0.46500635  0.15484191  0.24036687     0.11000
H3061       H  0.45544013  0.17296761  0.21576591     0.16400
H3062       H  0.41702127  0.17797729  0.22508380     0.12300
H3063       H  0.41258100  0.12325230  0.30832764     0.15200
H3064       H  0.45126997  0.11973331  0.30212810     0.14900
C3065       C  0.50186578  0.07866303  0.34874990    -0.17900
C3066       C  0.48925440  0.07743401  0.34957249    -0.20100
C3067       C  0.48192925  0.08778415  0.35282363     0.20500
C3068       C  0.48734152  0.09943316  0.35659265    -0.03000
C3069       C  0.50008151  0.10066086  0.35626618    -0.06100
C3070       C  0.50736101  0.09024607  0.35159785     0.20800
C3071       C  0.50550831  0.11233728  0.35948913     0.19000
C3072       C  0.49818006  0.12262834  0.36410911    -0.17600
C3073       C  0.48554592  0.12141821  0.36404793    -0.19800
C3074       C  0.48003442  0.10988272  0.35968904     0.20500
C3075       C  0.46737940  0.10866884  0.35723494    -0.32800
C3076       C  0.46187778  0.09710871  0.35203014     0.01200
C3077       C  0.46929510  0.08668270  0.35134475    -0.24100
C3078       C  0.51996491  0.09162802  0.34869650    -0.28700
C3079       C  0.52540431  0.10328561  0.35043263     0.06800
C3080       C  0.51813158  0.11355685  0.35691623    -0.27400
H3081       H  0.50731598  0.07056806  0.34533249     0.11600
H3082       H  0.48521972  0.06840699  0.34677607     0.12700
H3083       H  0.50221337  0.13165643  0.36688139     0.11800
H3084       H  0.48008392  0.12953672  0.36676941     0.11000
H3085       H  0.46196404  0.11683402  0.35816563     0.16400
H3086       H  0.46532966  0.07762442  0.34919836     0.12300
H3087       H  0.52545353  0.08367175  0.34353410     0.15200
H3088       H  0.52226710  0.12255238  0.35929937     0.14900
C3089       C  0.42422417  0.04909201  0.20303760    -0.17900
C3090       C  0.42416751  0.06057190  0.21963665    -0.20100
C3091       C  0.42399411  0.06151698  0.25677953     0.20500
C3092       C  0.42364701  0.05075558  0.27729691    -0.03000
C3093       C  0.42378231  0.03914898  0.26053858    -0.06100
C3094       C  0.42418108  0.03830890  0.22322799     0.20800
C3095       C  0.42387627  0.02840833  0.28117802     0.19000
C3096       C  0.42365382  0.02933487  0.31828295    -0.17600
C3097       C  0.42358848  0.04079912  0.33481637    -0.19800
C3098       C  0.42369888  0.05156900  0.31457858     0.20500
C3099       C  0.42444914  0.06308838  0.33106614    -0.32800
C3100       C  0.42498204  0.07400916  0.31105258     0.01200
C3101       C  0.42473035  0.07300403  0.27366953    -0.24100
C3102       C  0.42477912  0.02673780  0.20683316    -0.28700
C3103       C  0.42505419  0.01595010  0.22723788     0.06800
C3104       C  0.42449931  0.01693870  0.26448385    -0.27400
H3105       H  0.42450643  0.04865589  0.17436415     0.11600
H3106       H  0.42444142  0.06872879  0.20337832     0.12700
H3107       H  0.42371771  0.02118260  0.33456976     0.11800
H3108       H  0.42363927  0.04123912  0.36350713     0.11000
H3109       H  0.42539756  0.06342293  0.35959765     0.16400
H3110       H  0.42585886  0.08108803  0.25746486     0.12300
H3111       H  0.42505292  0.02616492  0.17818790     0.15200
H3112       H  0.42497058  0.00879923  0.28073032     0.14900
C3113       C  0.43520414  0.13459967  0.81231015    -0.17900
C3114       C  0.43580828  0.14623072  0.82769634    -0.20100
C3115       C  0.43546831  0.15674190  0.80643348     0.20500
C3116       C  0.43443307  0.15552770  0.76930962    -0.03000
C3117       C  0.43384444  0.14377577  0.75375508    -0.06100
C3118       C  0.43423282  0.13328162  0.77540481     0.20800
C3119       C  0.43297972  0.14253273  0.71657493     0.19000
C3120       C  0.43257981  0.15305903  0.69536721    -0.17600
C3121       C  0.43311584  0.16470640  0.71079467    -0.19800
C3122       C  0.43409386  0.16604310  0.74770789     0.20500
C3123       C  0.43492980  0.17769176  0.76333677    -0.32800
C3124       C  0.43616781  0.17897165  0.80030889     0.01200
C3125       C  0.43627727  0.16843037  0.82164444    -0.24100
C3126       C  0.43374416  0.12165002  0.75979850    -0.28700
C3127       C  0.43291733  0.12030618  0.72275147     0.06800
C3128       C  0.43258735  0.13080055  0.70129734    -0.27400
H3129       H  0.43553504  0.12662567  0.82928975     0.11600
H3130       H  0.43660884  0.14700397  0.85624161     0.12700
H3131       H  0.43189567  0.15228564  0.66680065     0.11800
H3132       H  0.43284274  0.17267955  0.69380692     0.11000
H3133       H  0.43496826  0.18573693  0.74660341     0.16400
H3134       H  0.43695161  0.16929386  0.85019156     0.12300
H3135       H  0.43429995  0.11362534  0.77652860     0.15200
H3136       H  0.43191753  0.12983686  0.67276589     0.14900
C3137       C  0.50063667  0.11764055  0.70266994    -0.17900
C3138       C  0.48798466  0.11726532  0.70444616    -0.20100
C3139       C  0.48148028  0.10728515  0.69037073     0.20500
C3140       C  0.48776178  0.09767367  0.67375538    -0.03000
C3141       C  0.50050129  0.09808308  0.67180011    -0.06100
C3142       C  0.50697955  0.10805546  0.68671853     0.20800
C3143       C  0.50676977  0.08830851  0.65603378     0.19000
C3144       C  0.50027433  0.07843784  0.64131502    -0.17600
C3145       C  0.48764426  0.07801927  0.64332511    -0.19800
C3146       C  0.48133949  0.08748336  0.65998162     0.20500
C3147       C  0.46875219  0.08681842  0.66381632    -0.32800
C3148       C  0.46252233  0.09627847  0.68071705     0.01200
C3149       C  0.46883661  0.10659223  0.69331332    -0.24100
C3150       C  0.51968179  0.10799340  0.68676173    -0.28700
C3151       C  0.52587041  0.09795670  0.67290318     0.06800
C3152       C  0.51942942  0.08832524  0.65668362    -0.27400
H3153       H  0.50547376  0.12533473  0.71430080     0.11600
H3154       H  0.48329397  0.12469507  0.71732538     0.12700
H3155       H  0.50497835  0.07090964  0.62896420     0.11800
H3156       H  0.48281990  0.07019242  0.63240504     0.11000
H3157       H  0.46376884  0.07892710  0.65385760     0.16400
H3158       H  0.46393555  0.11384155  0.70644381     0.12300
H3159       H  0.52473671  0.11535661  0.69942906     0.15200
H3160       H  0.52430942  0.08062813  0.64582398     0.14900
C3161       C  0.40870563  0.09629255  0.49839442    -0.17900
C3162       C  0.40886299  0.09613220  0.53551866    -0.20100
C3163       C  0.41974071  0.09799100  0.55420783     0.20500
C3164       C  0.43052946  0.10031985  0.53524488    -0.03000
C3165       C  0.43036513  0.10051176  0.49773367    -0.06100
C3166       C  0.41942200  0.09832581  0.47922299     0.20800
C3167       C  0.44119686  0.10259508  0.47878591     0.19000
C3168       C  0.45206332  0.10456459  0.49746172    -0.17600
C3169       C  0.45223158  0.10434182  0.53456981    -0.19800
C3170       C  0.44152906  0.10218451  0.55371004     0.20500
C3171       C  0.44168251  0.10159821  0.59091629    -0.32800
C3172       C  0.43101463  0.09902585  0.61001939     0.01200
C3173       C  0.42005978  0.09731892  0.59143438    -0.24100
C3174       C  0.41944667  0.09788771  0.44194348    -0.28700
C3175       C  0.43025530  0.09971762  0.42287627     0.06800
C3176       C  0.44104171  0.10231458  0.44154440    -0.27400
H3177       H  0.40021282  0.09465501  0.48465465     0.11600
H3178       H  0.40048619  0.09438572  0.54962187     0.12700
H3179       H  0.46047181  0.10613414  0.48334355     0.11800
H3180       H  0.46076448  0.10575252  0.54830797     0.11000
H3181       H  0.45021288  0.10268492  0.60491292     0.16400
H3182       H  0.41180937  0.09535871  0.60596731     0.12300
H3183       H  0.41110141  0.09592973  0.42774073     0.15200
H3184       H  0.44945132  0.10354310  0.42715226     0.14900
C3185       C  0.41703328  0.04205855  0.70725044    -0.17900
C3186       C  0.41734511  0.03069727  0.72411890    -0.20100
C3187       C  0.42102939  0.02980101  0.75965528     0.20500
C3188       C  0.42405302  0.04046754  0.77873858    -0.03000
C3189       C  0.42385117  0.05195152  0.76157377    -0.06100
C3190       C  0.42051184  0.05271556  0.72551125     0.20800
C3191       C  0.42756982  0.06255191  0.77997754     0.19000
C3192       C  0.43091667  0.06168371  0.81582853    -0.17600
C3193       C  0.43093296  0.05032814  0.83298649    -0.19800
C3194       C  0.42772540  0.03961460  0.81450733     0.20500
C3195       C  0.42840417  0.02806755  0.83088367    -0.32800
C3196       C  0.42579275  0.01726986  0.81170016     0.01200
C3197       C  0.42208042  0.01836490  0.77594735    -0.24100
C3198       C  0.42140832  0.06394850  0.70766563    -0.28700
C3199       C  0.42583452  0.07449434  0.72514710     0.06800
C3200       C  0.42855458  0.07369016  0.76171615    -0.27400
H3201       H  0.41440996  0.04245904  0.67958726     0.11600
H3202       H  0.41490696  0.02257201  0.70914412     0.12700
H3203       H  0.43376919  0.06975877  0.83041782     0.11800
H3204       H  0.43374643  0.04989260  0.86048225     0.11000
H3205       H  0.43107374  0.02759161  0.85843100     0.16400
H3206       H  0.42036740  0.01035056  0.75986705     0.12300
H3207       H  0.41953071  0.06407215  0.67959139     0.15200
H3208       H  0.43225178  0.08159859  0.77548362     0.14900
C3209       C  0.41353728  0.84056438  0.19320208    -0.17900
C3210       C  0.41346653  0.85176578  0.21126115    -0.20100
C3211       C  0.41479327  0.85218657  0.24829400     0.20500
C3212       C  0.41596668  0.84117752  0.26731908    -0.03000
C3213       C  0.41606778  0.82985493  0.24907905    -0.06100
C3214       C  0.41496740  0.82956027  0.21180157     0.20800
C3215       C  0.41761170  0.81887128  0.26807282     0.19000
C3216       C  0.41896928  0.81929005  0.30505052    -0.17600
C3217       C  0.41897623  0.83049497  0.32302209    -0.19800
C3218       C  0.41755882  0.84149587  0.30439129     0.20500
C3219       C  0.41829628  0.85280280  0.32204343    -0.32800
C3220       C  0.41738400  0.86395718  0.30342883     0.01200
C3221       C  0.41556352  0.86344206  0.26631504    -0.24100
C3222       C  0.41555948  0.81830898  0.19377218    -0.28700
C3223       C  0.41715910  0.80732103  0.21252302     0.06800
C3224       C  0.41805367  0.80769457  0.24973651    -0.27400
H3225       H  0.41265410  0.84052693  0.16459597     0.11600
H3226       H  0.41256718  0.86012929  0.19616086     0.12700
H3227       H  0.42020280  0.81095249  0.32005371     0.11800
H3228       H  0.42025596  0.83056442  0.35150215     0.11000
H3229       H  0.42036296  0.85289037  0.35011315     0.16400
H3230       H  0.41554855  0.87174221  0.25078955     0.12300
H3231       H  0.41478325  0.81810472  0.16513553     0.15200
H3232       H  0.41950511  0.79931460  0.26437971     0.14900
C3233       C  0.47788810  0.91214873  0.34814802    -0.17900
C3234       C  0.49049540  0.91339689  0.35036297    -0.20100
C3235       C  0.49791027  0.90305602  0.34921086     0.20500
C3236       C  0.49258126  0.89133021  0.34633203    -0.03000
C3237       C  0.47984699  0.89006523  0.34451189    -0.06100
C3238       C  0.47246450  0.90052799  0.34513564     0.20800
C3239       C  0.47452299  0.87834155  0.34180037     0.19000
C3240       C  0.48193226  0.86798968  0.34081620    -0.17600
C3241       C  0.49454800  0.86925177  0.34214558    -0.19800
C3242       C  0.49996943  0.88088037  0.34482906     0.20500
C3243       C  0.51263357  0.88225421  0.34523821    -0.32800
C3244       C  0.51803141  0.89394537  0.34734772     0.01200
C3245       C  0.51055904  0.90426833  0.35019668    -0.24100
C3246       C  0.45981495  0.89920467  0.34244382    -0.28700
C3247       C  0.45439638  0.88753046  0.33975200     0.06800
C3248       C  0.46188960  0.87714823  0.33998830    -0.27400
H3249       H  0.47237746  0.92028394  0.34873265     0.11600
H3250       H  0.49445779  0.92247524  0.35254341     0.12700
H3251       H  0.47796906  0.85890984  0.33868092     0.11800
H3252       H  0.50006736  0.86112957  0.34094514     0.11000
H3253       H  0.51823233  0.87423631  0.34255370     0.16400
H3254       H  0.51457087  0.91331156  0.35272341     0.12300
H3255       H  0.45426778  0.90730243  0.34179904     0.15200
H3256       H  0.45794969  0.86804833  0.33906286     0.14900
C3257       C  0.42263512  0.95512853  0.31290967    -0.17900
C3258       C  0.42261485  0.94355079  0.32883098    -0.20100
C3259       C  0.42198852  0.93290069  0.30805294     0.20500
C3260       C  0.42107331  0.93398751  0.27084805    -0.03000
C3261       C  0.42106829  0.94569274  0.25477367    -0.06100
C3262       C  0.42198540  0.95630469  0.27587594     0.20800
C3263       C  0.42065367  0.94674139  0.21754987     0.19000
C3264       C  0.41992886  0.93610826  0.19671859    -0.17600
C3265       C  0.41981598  0.92454553  0.21259320    -0.19800
C3266       C  0.42052175  0.92338502  0.24960246     0.20500
C3267       C  0.42100589  0.91180789  0.26559343    -0.32800
C3268       C  0.42211063  0.91057041  0.30270943     0.01200
C3269       C  0.42251580  0.92121568  0.32373369    -0.24100
C3270       C  0.42271235  0.96787142  0.25961631    -0.28700
C3271       C  0.42237116  0.96911550  0.22232124     0.06800
C3272       C  0.42145416  0.95834500  0.20167378    -0.27400
H3273       H  0.42333661  0.96317653  0.32959171     0.11600
H3274       H  0.42328103  0.94292897  0.35742149     0.12700
H3275       H  0.41959828  0.93672697  0.16807247     0.11800
H3276       H  0.41937650  0.91649434  0.19585419     0.11000
H3277       H  0.42095073  0.90375507  0.24884421     0.16400
H3278       H  0.42325402  0.92042614  0.35227127     0.12300
H3279       H  0.42415868  0.97585199  0.27614858     0.15200
H3280       H  0.42199277  0.95883557  0.17309766     0.14900
C3281       C  0.42105329  0.84292604  0.82048701    -0.17900
C3282       C  0.42199591  0.85457245  0.80537192    -0.20100
C3283       C  0.42281924  0.85595047  0.76845883     0.20500
C3284       C  0.42262529  0.84550168  0.74653118    -0.03000
C3285       C  0.42164702  0.83372596  0.76181073    -0.06100
C3286       C  0.42094154  0.83244884  0.79896338     0.20800
C3287       C  0.42150631  0.82324275  0.73994935     0.19000
C3288       C  0.42226115  0.82465156  0.70302829    -0.17600
C3289       C  0.42326186  0.83631522  0.68790283    -0.19800
C3290       C  0.42349832  0.84680730  0.70938370     0.20500
C3291       C  0.42455020  0.85856029  0.69440564    -0.32800
C3292       C  0.42461116  0.86903549  0.71607104     0.01200
C3293       C  0.42384188  0.86759683  0.75314811    -0.24100
C3294       C  0.42034418  0.82072652  0.81400317    -0.28700
C3295       C  0.42050335  0.81020266  0.79251473     0.06800
C3296       C  0.42086604  0.81155040  0.75541909    -0.27400
H3297       H  0.42050236  0.84211034  0.84905568     0.11600
H3298       H  0.42211607  0.86251083  0.82258860     0.12700
H3299       H  0.42216659  0.81671325  0.68581839     0.11800
H3300       H  0.42388705  0.83712593  0.65934771     0.11000
H3301       H  0.42508216  0.85955443  0.66587748     0.16400
H3302       H  0.42418492  0.87555710  0.77026518     0.12300
H3303       H  0.41981126  0.81980671  0.84255080     0.15200
H3304       H  0.42109099  0.80350587  0.73864054     0.14900
C3305       C  0.49386136  0.91561850  0.66052438    -0.17900
C3306       C  0.48122050  0.91545591  0.66002450    -0.20100
C3307       C  0.47479301  0.90476544  0.66889582     0.20500
C3308       C  0.48111140  0.89407832  0.67804817    -0.03000
C3309       C  0.49388123  0.89423334  0.67845871    -0.06100
C3310       C  0.50025146  0.90509022  0.66987414     0.20800
C3311       C  0.50026326  0.88359638  0.68788061     0.19000
C3312       C  0.49379648  0.87291929  0.69683028    -0.17600
C3313       C  0.48110917  0.87277957  0.69655210    -0.19800
C3314       C  0.47467512  0.88330033  0.68718084     0.20500
C3315       C  0.46194161  0.88332562  0.68729643    -0.32800
C3316       C  0.45567029  0.89403772  0.67884140     0.01200
C3317       C  0.46214671  0.90465012  0.66926310    -0.24100
C3318       C  0.51290040  0.90530181  0.67134372    -0.28700
C3319       C  0.51929614  0.89481481  0.68117341     0.06800
C3320       C  0.51297768  0.88392276  0.68882262    -0.27400
H3321       H  0.49864192  0.92400787  0.65385584     0.11600
H3322       H  0.47646502  0.92372402  0.65297111     0.12700
H3323       H  0.49855357  0.86469512  0.70428472     0.11800
H3324       H  0.47632697  0.86445140  0.70379630     0.11000
H3325       H  0.45692892  0.87518212  0.69504249     0.16400
H3326       H  0.45729681  0.91288878  0.66237964     0.12300
H3327       H  0.51780361  0.91366413  0.66504662     0.15200
H3328       H  0.51793716  0.87586135  0.69670417     0.14900
C3329       C  0.44580502  0.89293816  0.48999909    -0.17900
C3330       C  0.44609287  0.89276892  0.52713977    -0.20100
C3331       C  0.43536435  0.89133803  0.54669409     0.20500
C3332       C  0.42421984  0.89007554  0.52853245    -0.03000
C3333       C  0.42395532  0.89002601  0.49094042    -0.06100
C3334       C  0.43480161  0.89151938  0.47160917     0.20800
C3335       C  0.41286355  0.88838308  0.47274452     0.19000
C3336       C  0.40211391  0.88712058  0.49232335    -0.17600
C3337       C  0.40234022  0.88746655  0.52948989    -0.19800
C3338       C  0.41334091  0.88890203  0.54790181     0.20500
C3339       C  0.41365189  0.88933237  0.58524881    -0.32800
C3340       C  0.42473580  0.89054278  0.60350990     0.01200
C3341       C  0.43556417  0.89134755  0.58402763    -0.24100
C3342       C  0.43449940  0.89130875  0.43429241    -0.28700
C3343       C  0.42355620  0.88922086  0.41590661     0.06800
C3344       C  0.41275325  0.88783847  0.43539110    -0.27400
H3345       H  0.45422603  0.89406866  0.47562580     0.11600
H3346       H  0.45472359  0.89381869  0.54059559     0.12700
H3347       H  0.39350593  0.88588030  0.47887185     0.11800
H3348       H  0.39389659  0.88654302  0.54385868     0.11000
H3349       H  0.40528796  0.88877866  0.60017958     0.16400
H3350       H  0.44410242  0.89248995  0.59797598     0.12300
H3351       H  0.44287983  0.89221183  0.41956280     0.15200
H3352       H  0.40428564  0.88625855  0.42143130     0.14900
C3353       C  0.42455033  0.95962522  0.71694135    -0.17900
C3354       C  0.42354049  0.94865599  0.69807644    -0.20100
C3355       C  0.42033503  0.93777279  0.71550643     0.20500
C3356       C  0.41771404  0.93801235  0.75204111    -0.03000
C3357       C  0.41862931  0.94913306  0.77106872    -0.06100
C3358       C  0.42229290  0.95990966  0.75350885     0.20800
C3359       C  0.41650194  0.94933256  0.80791635     0.19000
C3360       C  0.41320747  0.93844003  0.82524217    -0.17600
C3361       C  0.41243917  0.92740057  0.80647127    -0.19800
C3362       C  0.41485956  0.92705152  0.76994747     0.20500
C3363       C  0.41524539  0.91585615  0.75160138    -0.32800
C3364       C  0.41844371  0.91543060  0.71534441     0.01200
C3365       C  0.42051171  0.92657531  0.69744844    -0.24100
C3366       C  0.42417517  0.97067121  0.77298629    -0.28700
C3367       C  0.42228017  0.97103604  0.80995229     0.06800
C3368       C  0.41825128  0.96026085  0.82707894    -0.27400
H3369       H  0.42735698  0.96784282  0.70305240     0.11600
H3370       H  0.42561986  0.94862142  0.67002603     0.12700
H3371       H  0.41153790  0.93839429  0.85352780     0.11800
H3372       H  0.41023199  0.91907748  0.82072195     0.11000
H3373       H  0.41397557  0.90754856  0.76662070     0.16400
H3374       H  0.42336057  0.92644838  0.66998130     0.12300
H3375       H  0.42763006  0.97872239  0.75947725     0.15200
H3376       H  0.41714120  0.96000741  0.85547714     0.14900
loop_ 
_geom_bond_atom_site_label_1 
_geom_bond_atom_site_label_2 
_geom_bond_distance 
_geom_bond_site_symmetry_2 
_ccdc_geom_bond_type 
C1            C2   1.538       .  S
C1            C7   1.542       .  S
C1            C5   1.531       .  S
C1         C3364   1.530       .  S
C2            H9   1.083       .  S
C2            C3   1.371       .  D
C3            C4   1.550       .  S
C3         C3292   1.493       .  S
C4            C8   1.548       .  S
C4            C6   1.535       .  S
C4           H10   1.110       .  S
C5           H11   1.087       .  S
C5            C6   1.358       .  D
C6         C3316   1.477       .  S
C7           H12   1.086       .  S
C7            C8   1.370       .  D
C8         C3340   1.491       .  S
C13          C14   1.538       .  S
C13          C19   1.544       .  S
C13          C17   1.532       .  S
C13        C3220   1.534       .  S
C14          H21   1.084       .  S
C14          C15   1.371       .  D
C15          C16   1.553       .  S
C15        C3268   1.500       .  S
C16          C20   1.547       .  S
C16          C18   1.544       .  S
C16          H22   1.108       .  S
C17          H23   1.085       .  S
C17          C18   1.364       .  D
C18        C3247   1.495       .  S
C19          H24   1.085       .  S
C19          C20   1.371       .  D
C20        C3343   1.496       .  S
C25          C26   1.548       .  S
C25          C31   1.536       .  S
C25          C29   1.535       .  S
C25        C3199   1.530       .  S
C26          H33   1.082       .  S
C26          C27   1.372       .  D
C27          C28   1.542       .  S
C27        C3172   1.491       .  S
C28          C32   1.542       .  S
C28          C30   1.529       .  S
C28          H34   1.110       .  S
C29          H35   1.087       .  S
C29          C30   1.359       .  D
C30        C3148   1.469       .  S
C31          H36   1.086       .  S
C31          C32   1.368       .  D
C32        C3127   1.487       .  S
C37          C38   1.544       .  S
C37          C43   1.545       .  S
C37          C41   1.535       .  S
C37        C3100   1.537       .  S
C38          H45   1.085       .  S
C38          C39   1.369       .  D
C39          C40   1.547       .  S
C39        C3055   1.489       .  S
C40          C44   1.542       .  S
C40          C42   1.539       .  S
C40          H46   1.108       .  S
C41          H47   1.085       .  S
C41          C42   1.367       .  D
C42        C3076   1.498       .  S
C43          H48   1.085       .  S
C43          C44   1.370       .  D
C44        C3175   1.492       .  S
C49          C50   1.532       .  S
C49          C55   1.543       .  S
C49          C53   1.541       .  S
C49        C3271   1.536       .  S
C50          H57   1.087       .  S
C50          C51   1.362       .  D
C51          C52   1.533   1_565  S
C51        C3004   1.478       .  S
C52          C56   1.547   1_545  S
C52          C54   1.548       .  S
C52          H58   1.109       .  S
C53          H59   1.084       .  S
C53          C54   1.373   1_565  D
C54        C3103   1.500       .  S
C55          H60   1.084       .  S
C55          C56   1.372       .  D
C56        C3028   1.496       .  S
C61          C62   1.531       .  S
C61          C67   1.538       .  S
C61          C65   1.532       .  S
C61        C3367   1.531       .  S
C62          H69   1.083       .  S
C62          C63   1.372   1_565  D
C63          C64   1.554       .  S
C63        C3196   1.505       .  S
C64          C68   1.551   1_545  S
C64          C66   1.536   1_545  S
C64          H70   1.106       .  S
C65          H71   1.087       .  S
C65          C66   1.362       .  D
C66        C2980   1.484       .  S
C67          H72   1.081       .  S
C67          C68   1.372       .  D
C68        C3031   1.495       .  S
C73          C74   1.539       .  S
C73          C79   1.545       .  S
C73          C77   1.535       .  S
C73        C2956   1.540       .  S
C74          H81   1.086       .  S
C74          C75   1.371       .  D
C75          C76   1.546       .  S
C75        C2911   1.499       .  S
C76          C80   1.550       .  S
C76          C78   1.539       .  S
C76          H82   1.108       .  S
C77          H83   1.086       .  S
C77          C78   1.365       .  D
C78        C3244   1.490       .  S
C79          H84   1.082       .  S
C79          C80   1.374       .  D
C80        C2932   1.501       .  S
C85          C86   1.543       .  S
C85          C91   1.540       .  S
C85          C89   1.534       .  S
C85        C2884   1.531       .  S
C86          H93   1.085       .  S
C86          C87   1.372       .  D
C87          C88   1.548       .  S
C87        C2935   1.501       .  S
C88          C92   1.545       .  S
C88          C90   1.531       .  S
C88          H94   1.108       .  S
C89          H95   1.087       .  S
C89          C90   1.360       .  D
C90        C3319   1.476       .  S
C91          H96   1.083       .  S
C91          C92   1.371       .  D
C92        C2863   1.492       .  S
C97          C98   1.543       .  S
C97         C103   1.548       .  S
C97         C101   1.530       .  S
C97        C2836   1.537       .  S
C98         H105   1.083       .  S
C98          C99   1.375       .  D
C99         C100   1.547       .  S
C99        C2788   1.502       .  S
C100        C104   1.543       .  S
C100        C102   1.530       .  S
C100        H106   1.110       .  S
C101        H107   1.088       .  S
C101        C102   1.356       .  D
C102       C3151   1.470       .  S
C103        H108   1.085       .  S
C103        C104   1.373       .  D
C104       C2812   1.488       .  S
C109        C110   1.544       .  S
C109        C115   1.543       .  S
C109        C113   1.536       .  S
C109       C2740   1.537       .  S
C110        H117   1.082       .  S
C110        C111   1.369       .  D
C111        C112   1.549       .  S
C111       C2767   1.501       .  S
C112        C116   1.548       .  S
C112        C114   1.538       .  S
C112        H118   1.109       .  S
C113        H119   1.086       .  S
C113        C114   1.364       .  D
C114       C3079   1.487       .  S
C115        H120   1.086       .  S
C115        C116   1.371       .  D
C116       C2815   1.496       .  S
C121        C122   1.540       .  S
C121        C127   1.535       .  S
C121        C125   1.532       .  S
C121       C2887   1.531       .  S
C122        H129   1.083       .  S
C122        C123   1.375       .  D
C123        C124   1.551   1_565  S
C123       C2716   1.494       .  S
C124        C128   1.549       .  S
C124        C126   1.539   1_545  S
C124        H130   1.109       .  S
C125        H131   1.087       .  S
C125        C126   1.363       .  D
C126       C2983   1.486       .  S
C127        H132   1.086       .  S
C127        C128   1.366   1_565  D
C128       C2839   1.496       .  S
C133        C134   1.546       .  S
C133        C139   1.538       .  S
C133        C137   1.533       .  S
C133       C2959   1.541       .  S
C134        H141   1.080       .  S
C134        C135   1.377   1_565  D
C135        C136   1.552       .  S
C135       C2764   1.510       .  S
C136        C140   1.548   1_545  S
C136        C138   1.534   1_545  S
C136        H142   1.107       .  S
C137        H143   1.087       .  S
C137        C138   1.360       .  D
C138       C3007   1.480       .  S
C139        H144   1.085       .  S
C139        C140   1.373       .  D
C140       C2719   1.496   1_565  S
C145        C146   1.537       .  S
C145        C151   1.540       .  S
C145        C149   1.533       .  S
C145       C2620   1.537       .  S
C146        H153   1.086       .  S
C146        C147   1.370       .  D
C147        C148   1.547       .  S
C147       C2668   1.498       .  S
C148        C152   1.554       .  S
C148        C150   1.539       .  S
C148        H154   1.109       .  S
C149        H155   1.086       .  S
C149        C150   1.364       .  D
C150       C2647   1.485       .  S
C151        H156   1.083       .  S
C151        C152   1.376       .  D
C152       C2695   1.503       .  S
C157        C158   1.542       .  S
C157        C163   1.533       .  S
C157        C161   1.532       .  S
C157       C2551   1.533       .  S
C158        H165   1.083       .  S
C158        C159   1.377       .  D
C159        C160   1.557       .  S
C159       C2596   1.509       .  S
C160        C164   1.551       .  S
C160        C162   1.539       .  S
C160        H166   1.108       .  S
C161        H167   1.087       .  S
C161        C162   1.362       .  D
C162       C2572   1.484       .  S
C163        H168   1.086       .  S
C163        C164   1.369       .  D
C164       C2671   1.499       .  S
C169        C170   1.536       .  S
C169        C175   1.540       .  S
C169        C173   1.527       .  S
C169       C2455   1.528       .  S
C170        H177   1.083       .  S
C170        C171   1.373       .  D
C171        C172   1.555       .  S
C171       C2527   1.506       .  S
C172        C176   1.550       .  S
C172        C174   1.535       .  S
C172        H178   1.108       .  S
C173        H179   1.087       .  S
C173        C174   1.360       .  D
C174       C2479   1.477       .  S
C175        H180   1.084       .  S
C175        C176   1.371       .  D
C176       C2500   1.493       .  S
C181        C182   1.542       .  S
C181        C187   1.541       .  S
C181        C185   1.535       .  S
C181       C2431   1.535       .  S
C182        H189   1.085       .  S
C182        C183   1.372       .  D
C183        C184   1.544       .  S
C183       C2383   1.495       .  S
C184        C188   1.542       .  S
C184        C186   1.539       .  S
C184        H190   1.106       .  S
C185        H191   1.086       .  S
C185        C186   1.367       .  D
C186       C2404   1.489       .  S
C187        H192   1.083       .  S
C187        C188   1.368       .  D
C188       C2503   1.495       .  S
C193        C194   1.542       .  S
C193        C199   1.538       .  S
C193        C197   1.537       .  S
C193       C2599   1.544       .  S
C194        H201   1.082       .  S
C194        C195   1.371       .  D
C195        C196   1.545       .  S
C195       C2356   1.503       .  S
C196        C200   1.550       .  S
C196        C198   1.541       .  S
C196        H202   1.106       .  S
C197        H203   1.085       .  S
C197        C198   1.370       .  D
C198       C2332   1.495       .  S
C199        H204   1.085       .  S
C199        C200   1.374       .  D
C200       C2428   1.503   1_655  S
C205        C206   1.541       .  S
C205        C211   1.538       .  S
C205        C209   1.537       .  S
C205       C2692   1.542       .  S
C206        H213   1.083       .  S
C206        C207   1.375       .  D
C207        C208   1.553       .  S
C207       C2524   1.498   1_655  S
C208        C212   1.551       .  S
C208        C210   1.534       .  S
C208        H214   1.110   1_655  S
C209        H215   1.087       .  S
C209        C210   1.365       .  D
C210       C2308   1.478       .  S
C211        H216   1.086       .  S
C211        C212   1.370       .  D
C212       C2359   1.505       .  S
C217        C218   1.539       .  S
C217        C223   1.548       .  S
C217        C221   1.538       .  S
C217       C2287   1.542       .  S
C218        H225   1.086       .  S
C218        C219   1.372       .  D
C219        C220   1.546       .  S
C219       C2236   1.498       .  S
C220        C224   1.539       .  S
C220        C222   1.544       .  S
C220        H226   1.105       .  S
C221        H227   1.084       .  S
C221        C222   1.370       .  D
C222       C2575   1.500       .  S
C223        H228   1.080       .  S
C223        C224   1.367       .  D
C224       C2260   1.495       .  S
C229        C230   1.539       .  S
C229        C235   1.538       .  S
C229        C233   1.535       .  S
C229       C2212   1.539       .  S
C230        H237   1.085       .  S
C230        C231   1.371       .  D
C231        C232   1.549       .  S
C231       C2263   1.498       .  S
C232        C236   1.551       .  S
C232        C234   1.542       .  S
C232        H238   1.107       .  S
C233        H239   1.085       .  S
C233        C234   1.369       .  D
C234       C2644   1.495       .  S
C235        H240   1.083       .  S
C235        C236   1.370       .  D
C236       C2188   1.505       .  S
C241        C242   1.537       .  S
C241        C247   1.538       .  S
C241        C245   1.534       .  S
C241       C2116   1.529       .  S
C242        H249   1.086       .  S
C242        C243   1.370       .  D
C243        C244   1.544       .  S
C243       C2140   1.493       .  S
C244        C248   1.550       .  S
C244        C246   1.530       .  S
C244        H250   1.110       .  S
C245        H251   1.087       .  S
C245        C246   1.361       .  D
C246       C2476   1.475       .  S
C247        H252   1.083       .  S
C247        C248   1.373       .  D
C248       C2164   1.493       .  S
C253        C254   1.536       .  S
C253        C259   1.532       .  S
C253        C257   1.531       .  S
C253       C2071   1.529       .  S
C254        H261   1.079       .  S
C254        C255   1.380       .  D
C255        C256   1.560       .  S
C255       C2095   1.517       .  S
C256        C260   1.546       .  S
C256        C258   1.537       .  S
C256        H262   1.103       .  S
C257        H263   1.086       .  S
C257        C258   1.362       .  D
C258       C2407   1.484       .  S
C259        H264   1.085       .  S
C259        C260   1.365       .  D
C260       C2143   1.494       .  S
C265        C266   1.543       .  S
C265        C271   1.538   1_455  S
C265        C269   1.537       .  S
C265       C2092   1.537       .  S
C266        H273   1.079       .  S
C266        C267   1.369   1_455  D
C267        C268   1.546       .  S
C267       C2047   1.499       .  S
C268        C272   1.552       .  S
C268        C270   1.537       .  S
C268        H274   1.102       .  S
C269        H275   1.086       .  S
C269        C270   1.361   1_455  D
C270       C2335   1.486       .  S
C271        H276   1.081       .  S
C271        C272   1.378       .  D
C272       C2284   1.516       .  S
C277        C278   1.530       .  S
C277        C283   1.544       .  S
C277        C281   1.540       .  S
C277       C2215   1.534       .  S
C278        H285   1.087       .  S
C278        C279   1.357       .  D
C279        C280   1.531       .  S
C279       C2311   1.475       .  S
C280        C284   1.546       .  S
C280        C282   1.551       .  S
C280        H286   1.108   1_655  S
C281        H287   1.084       .  S
C281        C282   1.375       .  D
C282       C2167   1.502   1_655  S
C283        H288   1.084       .  S
C283        C284   1.374       .  D
C284       C2044   1.493       .  S
O289        C292   1.265       .  A
O289       Cd294   2.465       .  S
C290        O299   1.268       .  A
C290        O295   1.266       .  A
C290       C1996   1.486       .  S
O291        C297   1.267       .  A
O291       Cd294   2.512       .  S
C292        O300   1.264       .  A
C292       C2020   1.478       .  S
C293        O298   1.266       .  A
C293        O296   1.264       .  A
C293       C1948   1.490       .  S
Cd294       O301   2.482       .  S
Cd294       O300   2.466       .  S
Cd294       O299   2.480       .  S
Cd294       O295   2.478       .  S
Cd294       O298   2.519       .  S
Cd294       O296   2.482       .  S
C297        O301   1.264       .  A
C297       C1972   1.491       .  S
O302        C305   1.265       .  A
O302       Cd307   2.466       .  S
C303        O312   1.267       .  A
C303        O308   1.266       .  A
C303       C1924   1.491       .  S
O304        C310   1.265       .  A
O304       Cd307   2.483       .  S
C305        O313   1.264       .  A
C305       C2023   1.477       .  S
C306        O311   1.266       .  A
C306        O309   1.265       .  A
C306       C1900   1.490       .  S
Cd307       O314   2.491       .  S
Cd307       O313   2.463       .  S
Cd307       O312   2.484       .  S
Cd307       O308   2.505       .  S
Cd307       O311   2.502       .  S
Cd307       O309   2.491       .  S
C310        O314   1.264       .  A
C310       C1879   1.485       .  S
C315        C316   1.533       .  S
C315        C321   1.546       .  S
C315        C319   1.547       .  S
C315       C1927   1.537       .  S
C316        H323   1.087       .  S
C316        C317   1.363       .  D
C317        C318   1.533       .  S
C317       C1831   1.481       .  S
C318        C322   1.540       .  S
C318        C320   1.540       .  S
C318        H324   1.108       .  S
C319        H325   1.084       .  S
C319        C320   1.375       .  D
C320       C2860   1.490       .  S
C321        H326   1.085       .  S
C321        C322   1.371       .  D
C322       C1852   1.496       .  S
C327        C328   1.544       .  S
C327        C333   1.534       .  S
C327        C331   1.531       .  S
C327       C1999   1.532       .  S
C328        H335   1.082       .  S
C328        C329   1.378       .  D
C329        C330   1.554       .  S
C329       C2908   1.501       .  S
C330        C334   1.547       .  S
C330        C332   1.534       .  S
C330        H336   1.109       .  S
C331        H337   1.087       .  S
C331        C332   1.360       .  D
C332       C1804   1.479       .  S
C333        H338   1.086       .  S
C333        C334   1.367       .  D
C334       C1855   1.495       .  S
O339        C342   1.266       .  A
O339       Cd344   2.485       .  S
C340        O349   1.266       .  A
C340        O345   1.266       .  A
C340       C1780   1.482       .  S
O341        C347   1.265       .  A
O341       Cd344   2.508       .  S
C342        O350   1.266       .  A
C342       C1759   1.485       .  S
C343        O348   1.268       .  A
C343        O346   1.264       .  A
C343       C1735   1.489       .  S
Cd344       O351   2.508       .  S
Cd344       O350   2.478       .  S
Cd344       O349   2.457       .  S
Cd344       O345   2.490       .  S
Cd344       O348   2.527       .  S
Cd344       O346   2.463       .  S
C347        O351   1.265       .  A
C347       C1975   1.493       .  S
O352        C355   1.265       .  A
O352       Cd357   2.495       .  S
C353        O362   1.265       .  A
C353        O358   1.265       .  A
C353       C1783   1.479       .  S
O354        C360   1.266       .  A
O354       Cd357   2.506       .  S
C355        O363   1.269       .  A
C355       C1708   1.490       .  S
C356        O361   1.264       .  A
C356        O359   1.265       .  A
C356       C1903   1.490       .  S
Cd357       O364   2.449       .  S
Cd357       O363   2.489       .  S
Cd357       O362   2.468       .  S
Cd357       O358   2.459       .  S
Cd357       O361   2.508       .  S
Cd357       O359   2.497       .  S
C360        O364   1.262       .  A
C360       C1684   1.478       .  S
C365        C366   1.539       .  S
C365        C371   1.547       .  S
C365        C369   1.533       .  S
C365       C1756   1.531       .  S
C366        H373   1.086       .  S
C366        C367   1.370       .  D
C367        C368   1.541       .  S
C367       C1660   1.494       .  S
C368        C372   1.544       .  S
C368        C370   1.533       .  S
C368        H374   1.109       .  S
C369        H375   1.087       .  S
C369        C370   1.359       .  D
C370       C1636   1.473       .  S
C371        H376   1.082       .  S
C371        C372   1.373       .  D
C372       C2548   1.490       .  S
C377        C378   1.548       .  S
C377        C383   1.536       .  S
C377        C381   1.531       .  S
C377       C1711   1.536       .  S
C378        H385   1.083       .  S
C378        C379   1.380       .  D
C379        C380   1.546       .  S
C379       C2623   1.497       .  S
C380        C384   1.544       .  S
C380        C382   1.535       .  S
C380        H386   1.109       .  S
C381        H387   1.087       .  S
C381        C382   1.360       .  D
C382       C1615   1.480       .  S
C383        H388   1.085       .  S
C383        C384   1.368       .  D
C384       C1663   1.493       .  S
O389        C392   1.263       .  A
O389       Cd394   2.433       .  S
C390        O399   1.267       .  A
C390        O395   1.264       .  A
C390       C1567   1.493       .  S
O391        C397   1.268       .  A
O391       Cd394   2.510       .  S
C392        O400   1.267       .  A
C392       C1591   1.478       .  S
C393        O398   1.265       .  A
C393        O396   1.266       .  A
C393       C1540   1.496       .  S
Cd394       O401   2.450       .  S
Cd394       O400   2.494       .  S
Cd394       O399   2.511       .  S
Cd394       O395   2.505       .  S
Cd394       O398   2.524       .  S
Cd394       O396   2.509       .  S
C397        O401   1.264       .  A
C397       C1516   1.486       .  S
O402        C405   1.262       .  A
O402       Cd407   2.494       .  S
C403        O412   1.265       .  A
C403        O408   1.263       .  A
C403       C1588   1.479       .  S
O404        C410   1.268       .  A
O404       Cd407   2.503       .  S
C405        O413   1.268       .  A
C405       C1495   1.491       .  S
C406        O411   1.267       .  A
C406        O409   1.266       .  A
C406       C1468   1.494       .  S
Cd407       O414   2.469       .  S
Cd407       O413   2.513       .  S
Cd407       O412   2.484       .  S
Cd407       O408   2.457       .  S
Cd407       O411   2.522       .  S
Cd407       O409   2.491       .  S
C410        O414   1.265       .  A
C410       C1444   1.487       .  S
C415        C416   1.543       .  S
C415        C421   1.547       .  S
C415        C419   1.533       .  S
C415       C1492   1.541       .  S
C416        H423   1.085       .  S
C416        C417   1.376       .  D
C417        C418   1.544       .  S
C417       C2380   1.492       .  S
C418        C422   1.539       .  S
C418        C420   1.532       .  S
C418        H424   1.110       .  S
C419        H425   1.087       .  S
C419        C420   1.362       .  D
C420       C1399   1.477       .  S
C421        H426   1.079       .  S
C421        C422   1.367       .  D
C422       C1423   1.490       .  S
C427        C428   1.532       .  S
C427        C433   1.545       .  S
C427        C431   1.539       .  S
C427       C1564   1.537       .  S
C428        H435   1.086       .  S
C428        C429   1.365       .  D
C429        C430   1.535       .  S
C429       C1372   1.489       .  S
C430        C434   1.540       .  S
C430        C432   1.546       .  S
C430        H436   1.109       .  S
C431        H437   1.083       .  S
C431        C432   1.371       .  D
C432       C2452   1.493       .  S
C433        H438   1.085       .  S
C433        C434   1.372       .  D
C434       C1420   1.489       .  S
O439        C442   1.262       .  A
O439       Cd444   2.470       .  S
C440        O449   1.267       .  A
C440        O445   1.266       .  A
C440       C1324   1.488       .  S
O441        C447   1.267       .  A
O441       Cd444   2.489       .  S
C442        O450   1.265       .  A
C442       C1351   1.480       .  S
C443        O448   1.267       .  A
C443        O446   1.262       .  A
C443       C1471   1.496       .  S
Cd444       O451   2.491       .  S
Cd444       O450   2.486       .  S
Cd444       O449   2.492       .  S
Cd444       O445   2.486       .  S
Cd444       O448   2.545       .  S
Cd444       O446   2.491       .  S
C447        O451   1.268       .  A
C447       C1951   1.490       .  S
O452        C455   1.265       .  A
O452       Cd457   2.466       .  S
C453        O462   1.265       .  A
C453        O458   1.263       .  A
C453       C1348   1.479       .  S
O454        C460   1.267       .  A
O454       Cd457   2.501       .  S
C455        O463   1.269       .  A
C455       C1300   1.488       .  S
C456        O461   1.264       .  A
C456        O459   1.265       .  A
C456       C1543   1.495       .  S
Cd457       O464   2.481       .  S
Cd457       O463   2.511       .  S
Cd457       O462   2.482       .  S
Cd457       O458   2.463       .  S
Cd457       O461   2.512       .  S
Cd457       O459   2.519       .  S
C460        O464   1.265       .  A
C460       C1876   1.489       .  S
C465        C466   1.536       .  S
C465        C471   1.542       .  S
C465        C469   1.545       .  S
C465       C1327   1.536       .  S
C466        H473   1.087       .  S
C466        C467   1.365       .  D
C467        C468   1.531       .  S
C467       C1807   1.479       .  S
C468        C472   1.539       .  S
C468        C470   1.543       .  S
C468        H474   1.110       .  S
C469        H475   1.083       .  S
C469        C470   1.373       .  D
C470       C3223   1.492       .  S
C471        H476   1.086       .  S
C471        C472   1.367       .  D
C472       C1276   1.483       .  S
C477        C478   1.544       .  S
C477        C483   1.542       .  S
C477        C481   1.532       .  S
C477       C1303   1.534       .  S
C478        H485   1.085       .  S
C478        C479   1.376       .  D
C479        C480   1.545       .  S
C479       C3295   1.491       .  S
C480        C484   1.537       .  S
C480        C482   1.534       .  S
C480        H486   1.109       .  S
C481        H487   1.087       .  S
C481        C482   1.363       .  D
C482       C1828   1.484       .  S
C483        H488   1.083       .  S
C483        C484   1.365       .  D
C484       C1279   1.484       .  S
O489        C492   1.266       .  A
O489       Cd494   2.482       .  S
C490        O499   1.267       .  A
C490        O495   1.266       .  A
C490       C1228   1.486       .  S
O491        C497   1.265       .  A
O491       Cd494   2.488       .  S
C492        O500   1.265       .  A
C492       C1252   1.482       .  S
C493        O498   1.264       .  A
C493        O496   1.262       .  A
C493       C1204   1.487       .  S
Cd494       O501   2.486       .  S
Cd494       O500   2.462       .  S
Cd494       O499   2.479       .  S
Cd494       O495   2.486       .  S
Cd494       O498   2.518       .  S
Cd494       O496   2.476       .  S
C497        O501   1.264       .  A
C497       C1447   1.485       .  S
O502        C505   1.267       .  A
O502       Cd507   2.483       .  S
C503        O512   1.268       .  A
C503        O508   1.264       .  A
C503       C1183   1.485       .  S
O504        C510   1.265       .  A
O504       Cd507   2.512       .  S
C505        O513   1.266       .  A
C505       C1255   1.484       .  S
C506        O511   1.267       .  A
C506        O509   1.262       .  A
C506       C1519   1.485       .  S
Cd507       O514   2.472       .  S
Cd507       O513   2.467       .  S
Cd507       O512   2.500       .  S
Cd507       O508   2.464       .  S
Cd507       O511   2.532       .  S
Cd507       O509   2.441       .  S
C510        O514   1.263       .  A
C510       C1156   1.487       .  S
C515        C516   1.535       .  S
C515        C521   1.537       .  S
C515        C519   1.547       .  S
C515       C1231   1.531       .  S
C516        H523   1.087       .  S
C516        C517   1.359       .  D
C517        C518   1.531       .  S
C517       C1396   1.476       .  S
C518        C522   1.539       .  S
C518        C520   1.541       .  S
C518        H524   1.110       .  S
C519        H525   1.082       .  S
C519        C520   1.376       .  D
C520       C2068   1.489       .  S
C521        H526   1.086       .  S
C521        C522   1.367       .  D
C522       C1132   1.483       .  S
C527        C528   1.541       .  S
C527        C533   1.539       .  S
C527        C531   1.532       .  S
C527       C1180   1.531       .  S
C528        H535   1.084       .  S
C528        C529   1.373       .  D
C529        C530   1.543       .  S
C529       C2119   1.486       .  S
C530        C534   1.539       .  S
C530        C532   1.536       .  S
C530        H536   1.109       .  S
C531        H537   1.086       .  S
C531        C532   1.366       .  D
C532       C1375   1.488       .  S
C533        H538   1.085       .  S
C533        C534   1.367       .  D
C534       C1135   1.485       .  S
O539        C542   1.267       .  A
O539       Cd544   2.466       .  S
C540        O549   1.267       .  A
C540        O545   1.264       .  A
C540       C1084   1.484       .  S
O541        C547   1.269       .  A
O541       Cd544   2.553       .  S
C542        O550   1.267       .  A
C542       C1108   1.479       .  S
C543        O548   1.267       .  A
C543        O546   1.263       .  A
C543       C1159   1.489       .  S
Cd544       O551   2.451       .  S
Cd544       O550   2.456       .  S
Cd544       O549   2.483       .  S
Cd544       O545   2.480       .  S
Cd544       O548   2.513       .  S
Cd544       O546   2.482       .  S
C547        O551   1.263       .  A
C547       C1063   1.492       .  S
O552        C555   1.264       .  A
O552       Cd557   2.459       .  S
C553        O562   1.266       .  A
C553        O558   1.266       .  A
C553       C1111   1.480       .  S
O554        C560   1.269       .  A
O554       Cd557   2.566       .  S
C555        O563   1.269       .  A
C555       C1039   1.486       .  S
C556        O561   1.267       .  A
C556        O559   1.263       .  A
C556       C1207   1.492       .  S
Cd557       O564   2.448       .  S
Cd557       O563   2.506       .  S
Cd557       O562   2.473       .  S
Cd557       O558   2.464       .  S
Cd557       O561   2.519       .  S
Cd557       O559   2.491       .  S
C560        O564   1.263       .  A
C560       C1012   1.495       .  S
C565        C566   1.543       .  S
C565        C571   1.542       .  S
C565        C569   1.534       .  S
C565       C1036   1.537       .  S
C566        H573   1.086       .  S
C566        C567   1.373       .  D
C567        C568   1.551       .  S
C567       C3052   1.495       .  S
C568        C572   1.539       .  S
C568        C570   1.536       .  S
C568        H574   1.111       .  S
C569        H575   1.087       .  S
C569        C570   1.362       .  D
C570        C964   1.486       .  S
C571        H576   1.081       .  S
C571        C572   1.367       .  D
C572        C988   1.482       .  S
C577        C578   1.535       .  S
C577        C583   1.539       .  S
C577        C581   1.545       .  S
C577       C1087   1.530       .  S
C578        H585   1.087       .  S
C578        C579   1.362       .  D
C579        C580   1.531       .  S
C579        C940   1.479       .  S
C580        C584   1.535       .  S
C580        C582   1.543       .  S
C580        H586   1.110       .  S
C581        H587   1.082       .  S
C581        C582   1.374       .  D
C582       C3124   1.489       .  S
C583        H588   1.086       .  S
C583        C584   1.366       .  D
C584        C991   1.480       .  S
O589        C592   1.265       .  A
O589       Cd594   2.479       .  S
C590        O599   1.268       .  A
C590        O595   1.264       .  A
C590        C895   1.486       .  S
O591        C597   1.267       .  A
O591       Cd594   2.543       .  S
C592        O600   1.266       .  A
C592        C916   1.479       .  S
C593        O598   1.266       .  A
C593        O596   1.266       .  A
C593        C868   1.493       .  S
Cd594       O601   2.462       .  S
Cd594       O600   2.456       .  S
Cd594       O599   2.483       .  S
Cd594       O595   2.480       .  S
Cd594       O598   2.504       .  S
Cd594       O596   2.510       .  S
C597        O601   1.263       .  A
C597       C1015   1.492       .  S
O602        C605   1.265       .  A
O602       Cd607   2.472       .  S
C603        O612   1.269       .  A
C603        O608   1.263       .  A
C603        C847   1.485       .  S
O604        C610   1.266       .  A
O604       Cd607   2.516       .  S
C605        O613   1.266       .  A
C605        C919   1.478       .  S
C606        O611   1.267       .  A
C606        O609   1.263       .  A
C606       C1060   1.491       .  S
Cd607       O614   2.483       .  S
Cd607       O613   2.447       .  S
Cd607       O612   2.494       .  S
Cd607       O608   2.464       .  S
Cd607       O611   2.539       .  S
Cd607       O609   2.459       .  S
C610        O614   1.264       .  A
C610        C820   1.489       .  S
C615        C616   1.537       .  S
C615        C621   1.545       .  S
C615        C619   1.534       .  S
C615        C892   1.532       .  S
C616        H623   1.086       .  S
C616        C617   1.368       .  D
C617        C618   1.542       .  S
C617        C799   1.489       .  S
C618        C622   1.545       .  S
C618        C620   1.536       .  S
C618        H624   1.110       .  S
C619        H625   1.087       .  S
C619        C620   1.361       .  D
C620        C967   1.481       .  S
C621        H626   1.083       .  S
C621        C622   1.373       .  D
C622       C2743   1.490       .  S
C627        C628   1.549       .  S
C627        C633   1.541       .  S
C627        C631   1.532       .  S
C627        C844   1.532       .  S
C628        H635   1.083       .  S
C628        C629   1.377       .  D
C629        C630   1.546       .  S
C629       C2791   1.495       .  S
C630        C634   1.540       .  S
C630        C632   1.530       .  S
C630        H636   1.109       .  S
C631        H637   1.087       .  S
C631        C632   1.358       .  D
C632        C943   1.477       .  S
C633        H638   1.086       .  S
C633        C634   1.368       .  D
C634        C796   1.491       .  S
O639        C642   1.265       .  A
O639       Cd644   2.478       .  S
C640        O649   1.266       .  A
C640        O645   1.265       .  A
C640        C772   1.474       .  S
O641        C647   1.265       .  A
O641       Cd644   2.495       .  S
C642        O650   1.268       .  A
C642        C748   1.485       .  S
C643        O648   1.265       .  A
C643        O646   1.262       .  A
C643       C1687   1.479       .  S
Cd644       O651   2.468       .  S
Cd644       O650   2.477       .  S
Cd644       O649   2.458       .  S
Cd644       O645   2.450       .  S
Cd644       O648   2.492       .  S
Cd644       O646   2.452       .  S
C647        O651   1.264       .  A
C647        C823   1.484       .  S
O652        C655   1.267       .  A
O652       Cd657   2.475       .  S
C653        O662   1.265       .  A
C653        O658   1.268       .  A
C653        C727   1.491       .  S
O654        C660   1.266       .  A
O654       Cd657   2.508       .  S
C655        O663   1.264       .  A
C655        C775   1.477       .  S
C656        O661   1.269       .  A
C656        O659   1.263       .  A
C656       C1732   1.489       .  S
Cd657       O664   2.513       .  S
Cd657       O663   2.441       .  S
Cd657       O662   2.488       .  S
Cd657       O658   2.503       .  S
Cd657       O661   2.541       .  S
Cd657       O659   2.455       .  S
C660        O664   1.265       .  A
C660        C871   1.493       .  S
C665        C666   1.538       .  S
C665        C671   1.545       .  S
C665        C669   1.532       .  S
C665        C751   1.535       .  S
C666        H673   1.086       .  S
C666        C667   1.368       .  D
C667        C668   1.548       .  S
C667        C700   1.498       .  S
C668        C672   1.555       .  S
C668        C670   1.537       .  S
C668        H674   1.109       .  S
C669        H675   1.087       .  S
C669        C670   1.362       .  D
C670       C1612   1.482       .  S
C671        H676   1.083       .  S
C671        C672   1.375       .  D
C672       C2191   1.502       .  S
C677        C678   1.550       .  S
C677        C683   1.535       .  S
C677        C681   1.528       .  S
C677        C724   1.535       .  S
C678        H685   1.083       .  S
C678        C679   1.381       .  D
C679        C680   1.552       .  S
C679       C2239   1.501       .  S
C680        C684   1.547       .  S
C680        C682   1.536       .  S
C680        H686   1.109       .  S
C681        H687   1.087       .  S
C681        C682   1.358       .  D
C682       C1639   1.477       .  S
C683        H688   1.086       .  S
C683        C684   1.367       .  D
C684        C703   1.496       .  S
C689        C690   1.400       .  A
C689        C694   1.403   1_556  A
C689        H705   1.084   1_556  S
C690        C691   1.404       .  A
C690        H706   1.083       .  S
C691        C701   1.405       .  A
C691        C692   1.411       .  A
C692        C698   1.412       .  A
C692        C693   1.416       .  A
C693        C695   1.410   1_556  A
C693        C694   1.411   1_556  A
C694        C702   1.405       .  A
C695        C704   1.408       .  A
C695        C696   1.405   1_554  A
C696        C697   1.402       .  A
C696        H707   1.083   1_556  S
C697        C698   1.405       .  A
C697        H708   1.084       .  S
C698        C699   1.409       .  A
C699        C700   1.409       .  A
C699        H709   1.083       .  S
C700        C701   1.410       .  A
C701        H710   1.084       .  S
C702        C703   1.409       .  A
C702        H711   1.084       .  S
C703        C704   1.407       .  A
C704        H712   1.074       .  S
C713        C714   1.398       .  A
C713        C718   1.403       .  A
C713        H729   1.084       .  S
C714        C715   1.404       .  A
C714        H730   1.084       .  S
C715        C725   1.399       .  A
C715        C716   1.407       .  A
C716        C722   1.414       .  A
C716        C717   1.417       .  A
C717        C719   1.410       .  A
C717        C718   1.413       .  A
C718        C726   1.406       .  A
C719        C728   1.410       .  A
C719        C720   1.406       .  A
C720        C721   1.404       .  A
C720        H731   1.083       .  S
C721        C722   1.405       .  A
C721        H732   1.083       .  S
C722        C723   1.415       .  A
C723        C724   1.412       .  A
C723        H733   1.081       .  S
C724        C725   1.414       .  A
C725        H734   1.085       .  S
C726        C727   1.407       .  A
C726        H735   1.084       .  S
C727        C728   1.412       .  A
C728        H736   1.084       .  S
C737        C738   1.398       .  A
C737        C742   1.404       .  A
C737        H753   1.084       .  S
C738        C739   1.402       .  A
C738        H754   1.084       .  S
C739        C749   1.403       .  A
C739        C740   1.412       .  A
C740        C746   1.411       .  A
C740        C741   1.415       .  A
C741        C743   1.412       .  A
C741        C742   1.408       .  A
C742        C750   1.400       .  A
C743        C752   1.412       .  A
C743        C744   1.405       .  A
C744        C745   1.403       .  A
C744        H755   1.083       .  S
C745        C746   1.405       .  A
C745        H756   1.083       .  S
C746        C747   1.408       .  A
C747        C748   1.411       .  A
C747        H757   1.084       .  S
C748        C749   1.406       .  A
C749        H758   1.084       .  S
C750        C751   1.413       .  A
C750        H759   1.084       .  S
C751        C752   1.413       .  A
C752        H760   1.080       .  S
C761        C762   1.398       .  A
C761        C766   1.403       .  A
C761        H777   1.083       .  S
C762        C763   1.403       .  A
C762        H778   1.084       .  S
C763        C773   1.401       .  A
C763        C764   1.411       .  A
C764        C770   1.412       .  A
C764        C765   1.410       .  A
C765        C767   1.411       .  A
C765        C766   1.412       .  A
C766        C774   1.403       .  A
C767        C776   1.400       .  A
C767        C768   1.403       .  A
C768        C769   1.398       .  A
C768        H779   1.084       .  S
C769        C770   1.403       .  A
C769        H780   1.084       .  S
C770        C771   1.401       .  A
C771        C772   1.405       .  A
C771        H781   1.084       .  S
C772        C773   1.405       .  A
C773        H782   1.084       .  S
C774        C775   1.406       .  A
C774        H783   1.084       .  S
C775        C776   1.406       .  A
C776        H784   1.084       .  S
C785        C786   1.400   1_554  A
C785        C790   1.404       .  A
C785        H801   1.084       .  S
C786        C787   1.404       .  A
C786        H802   1.084       .  S
C787        C797   1.404       .  A
C787        C788   1.411       .  A
C788        C794   1.412       .  A
C788        C789   1.414   1_556  A
C789        C791   1.411       .  A
C789        C790   1.412       .  A
C790        C798   1.406       .  A
C791        C800   1.404       .  A
C791        C792   1.404       .  A
C792        C793   1.400   1_554  A
C792        H803   1.084       .  S
C793        C794   1.404       .  A
C793        H804   1.083       .  S
C794        C795   1.405       .  A
C795        C796   1.408       .  A
C795        H805   1.084       .  S
C796        C797   1.408       .  A
C797        H806   1.083       .  S
C798        C799   1.407       .  A
C798        H807   1.084       .  S
C799        C800   1.408       .  A
C800        H808   1.084       .  S
C809        C810   1.399       .  A
C809        C814   1.403       .  A
C809        H825   1.084       .  S
C810        C811   1.404       .  A
C810        H826   1.083       .  S
C811        C821   1.404       .  A
C811        C812   1.411       .  A
C812        C818   1.412       .  A
C812        C813   1.415       .  A
C813        C815   1.412       .  A
C813        C814   1.411       .  A
C814        C822   1.403       .  A
C815        C824   1.408       .  A
C815        C816   1.405       .  A
C816        C817   1.402       .  A
C816        H827   1.084       .  S
C817        C818   1.405       .  A
C817        H828   1.083       .  S
C818        C819   1.409       .  A
C819        C820   1.409       .  A
C819        H829   1.084       .  S
C820        C821   1.408       .  A
C821        H830   1.084       .  S
C822        C823   1.407       .  A
C822        H831   1.084       .  S
C823        C824   1.409       .  A
C824        H832   1.084       .  S
C833        C834   1.397       .  A
C833        C838   1.402       .  A
C833        H849   1.084       .  S
C834        C835   1.404       .  A
C834        H850   1.084       .  S
C835        C845   1.398       .  A
C835        C836   1.407       .  A
C836        C842   1.413       .  A
C836        C837   1.415       .  A
C837        C839   1.410       .  A
C837        C838   1.413       .  A
C838        C846   1.403       .  A
C839        C848   1.407       .  A
C839        C840   1.405       .  A
C840        C841   1.403       .  A
C840        H851   1.083       .  S
C841        C842   1.405       .  A
C841        H852   1.083       .  S
C842        C843   1.413       .  A
C843        C844   1.412       .  A
C843        H853   1.081       .  S
C844        C845   1.413       .  A
C845        H854   1.084       .  S
C846        C847   1.405       .  A
C846        H855   1.084       .  S
C847        C848   1.411       .  A
C848        H856   1.084       .  S
C857        C858   1.402       .  A
C857        C862   1.405       .  A
C857        H873   1.083       .  S
C858        C859   1.405       .  A
C858        H874   1.083       .  S
C859        C869   1.409       .  A
C859        C860   1.412       .  A
C860        C866   1.411       .  A
C860        C861   1.418       .  A
C861        C863   1.411       .  A
C861        C862   1.412       .  A
C862        C870   1.410       .  A
C863        C872   1.409       .  A
C863        C864   1.405       .  A
C864        C865   1.401       .  A
C864        H875   1.083       .  S
C865        C866   1.405       .  A
C865        H876   1.083       .  S
C866        C867   1.408       .  A
C867        C868   1.410       .  A
C867        H877   1.084       .  S
C868        C869   1.410       .  A
C869        H878   1.084       .  S
C870        C871   1.410       .  A
C870        H879   1.084       .  S
C871        C872   1.410       .  A
C872        H880   1.084       .  S
C881        C882   1.397       .  A
C881        C886   1.402       .  A
C881        H897   1.084       .  S
C882        C883   1.403       .  A
C882        H898   1.084       .  S
C883        C893   1.399       .  A
C883        C884   1.408       .  A
C884        C890   1.412       .  A
C884        C885   1.415       .  A
C885        C887   1.410       .  A
C885        C886   1.412       .  A
C886        C894   1.403       .  A
C887        C896   1.408       .  A
C887        C888   1.405       .  A
C888        C889   1.402       .  A
C888        H899   1.083       .  S
C889        C890   1.405       .  A
C889        H900   1.083       .  S
C890        C891   1.411       .  A
C891        C892   1.412       .  A
C891        H901   1.079       .  S
C892        C893   1.412       .  A
C893        H902   1.085       .  S
C894        C895   1.406       .  A
C894        H903   1.084       .  S
C895        C896   1.411       .  A
C896        H904   1.084       .  S
C905        C906   1.396       .  A
C905        C910   1.402       .  A
C905        H921   1.084       .  S
C906        C907   1.402       .  A
C906        H922   1.084       .  S
C907        C917   1.399       .  A
C907        C908   1.411       .  A
C908        C914   1.412       .  A
C908        C909   1.411       .  A
C909        C911   1.412       .  A
C909        C910   1.411       .  A
C910        C918   1.398       .  A
C911        C920   1.406       .  A
C911        C912   1.405       .  A
C912        C913   1.401       .  A
C912        H923   1.084       .  S
C913        C914   1.405       .  A
C913        H924   1.084       .  S
C914        C915   1.406       .  A
C915        C916   1.409       .  A
C915        H925   1.084       .  S
C916        C917   1.405       .  A
C917        H926   1.084       .  S
C918        C919   1.404       .  A
C918        H927   1.084       .  S
C919        C920   1.409       .  A
C920        H928   1.084       .  S
C929        C930   1.401       .  A
C929        C934   1.404       .  A
C929        H945   1.084       .  S
C930        C931   1.404       .  A
C930        H946   1.083       .  S
C931        C941   1.406       .  A
C931        C932   1.412       .  A
C932        C938   1.411       .  A
C932        C933   1.410       .  A
C933        C935   1.411       .  A
C933        C934   1.413       .  A
C934        C942   1.405       .  A
C935        C944   1.396       .  A
C935        C936   1.402       .  A
C936        C937   1.395       .  A
C936        H947   1.084       .  S
C937        C938   1.402       .  A
C937        H948   1.084       .  S
C938        C939   1.397       .  A
C939        C940   1.404       .  A
C939        H949   1.084       .  S
C940        C941   1.405       .  A
C941        H950   1.084       .  S
C942        C943   1.404       .  A
C942        H951   1.084       .  S
C943        C944   1.404       .  A
C944        H952   1.085       .  S
C953        C954   1.401       .  A
C953        C958   1.404       .  A
C953        H969   1.083       .  S
C954        C955   1.404       .  A
C954        H970   1.084       .  S
C955        C965   1.405       .  A
C955        C956   1.411       .  A
C956        C962   1.411       .  A
C956        C957   1.411       .  A
C957        C959   1.411       .  A
C957        C958   1.413       .  A
C958        C966   1.406       .  A
C959        C968   1.398       .  A
C959        C960   1.403       .  A
C960        C961   1.397       .  A
C960        H971   1.084       .  S
C961        C962   1.403       .  A
C961        H972   1.084       .  S
C962        C963   1.399       .  A
C963        C964   1.407       .  A
C963        H973   1.084       .  S
C964        C965   1.405       .  A
C965        H974   1.079       .  S
C966        C967   1.404       .  A
C966        H975   1.084       .  S
C967        C968   1.406       .  A
C968        H976   1.084       .  S
C977        C978   1.400   1_556  A
C977        C982   1.404       .  A
C977        H993   1.084       .  S
C978        C979   1.404       .  A
C978        H994   1.084       .  S
C979        C989   1.405       .  A
C979        C980   1.413       .  A
C980        C986   1.411       .  A
C980        C981   1.412   1_554  A
C981        C983   1.412       .  A
C981        C982   1.412       .  A
C982        C990   1.403       .  A
C983        C992   1.402       .  A
C983        C984   1.403       .  A
C984        C985   1.398   1_556  A
C984        H995   1.084       .  S
C985        C986   1.403       .  A
C985        H996   1.084       .  S
C986        C987   1.401       .  A
C987        C988   1.405       .  A
C987        H997   1.084       .  S
C988        C989   1.406       .  A
C989        H998   1.084       .  S
C990        C991   1.406       .  A
C990        H999   1.084       .  S
C991        C992   1.404       .  A
C992       H1000   1.084       .  S
C1001      C1002   1.407       .  A
C1001      C1006   1.407       .  A
C1001      H1017   1.083       .  S
C1002      C1003   1.407       .  A
C1002      H1018   1.083       .  S
C1003      C1013   1.417       .  A
C1003      C1004   1.413       .  A
C1004      C1010   1.410       .  A
C1004      C1005   1.418       .  A
C1005      C1007   1.411       .  A
C1005      C1006   1.412       .  A
C1006      C1014   1.415       .  A
C1007      C1016   1.401       .  A
C1007      C1008   1.402       .  A
C1008      C1009   1.396       .  A
C1008      H1019   1.084       .  S
C1009      C1010   1.403       .  A
C1009      H1020   1.084       .  S
C1010      C1011   1.400       .  A
C1011      C1012   1.408       .  A
C1011      H1021   1.084       .  S
C1012      C1013   1.413       .  A
C1013      H1022   1.084       .  S
C1014      C1015   1.413       .  A
C1014      H1023   1.084       .  S
C1015      C1016   1.407       .  A
C1016      H1024   1.084       .  S
C1025      C1026   1.401       .  A
C1025      C1030   1.403       .  A
C1025      H1041   1.084       .  S
C1026      C1027   1.406       .  A
C1026      H1042   1.084       .  S
C1027      C1037   1.407       .  A
C1027      C1028   1.409       .  A
C1028      C1034   1.410       .  A
C1028      C1029   1.415       .  A
C1029      C1031   1.410       .  A
C1029      C1030   1.412       .  A
C1030      C1038   1.407       .  A
C1031      C1040   1.404       .  A
C1031      C1032   1.404       .  A
C1032      C1033   1.400       .  A
C1032      H1043   1.083       .  S
C1033      C1034   1.404       .  A
C1033      H1044   1.083       .  S
C1034      C1035   1.405       .  A
C1035      C1036   1.411       .  A
C1035      H1045   1.084       .  S
C1036      C1037   1.417       .  A
C1037      H1046   1.077       .  S
C1038      C1039   1.408       .  A
C1038      H1047   1.084       .  S
C1039      C1040   1.409       .  A
C1040      H1048   1.084       .  S
C1049      C1050   1.396       .  A
C1049      C1054   1.403       .  A
C1049      H1065   1.084       .  S
C1050      C1051   1.402       .  A
C1050      H1066   1.084       .  S
C1051      C1061   1.401       .  A
C1051      C1052   1.411       .  A
C1052      C1058   1.412       .  A
C1052      C1053   1.417       .  A
C1053      C1055   1.413       .  A
C1053      C1054   1.410       .  A
C1054      C1062   1.401       .  A
C1055      C1064   1.415       .  A
C1055      C1056   1.407       .  A
C1056      C1057   1.406       .  A
C1056      H1067   1.083       .  S
C1057      C1058   1.406       .  A
C1057      H1068   1.083       .  S
C1058      C1059   1.414       .  A
C1059      C1060   1.412       .  A
C1059      H1069   1.084       .  S
C1060      C1061   1.407       .  A
C1061      H1070   1.084       .  S
C1062      C1063   1.407       .  A
C1062      H1071   1.084       .  S
C1063      C1064   1.412       .  A
C1064      H1072   1.084       .  S
C1073      C1074   1.402       .  A
C1073      C1078   1.405       .  A
C1073      H1089   1.083       .  S
C1074      C1075   1.405       .  A
C1074      H1090   1.083       .  S
C1075      C1085   1.407       .  A
C1075      C1076   1.410       .  A
C1076      C1082   1.412       .  A
C1076      C1077   1.414       .  A
C1077      C1079   1.408       .  A
C1077      C1078   1.412       .  A
C1078      C1086   1.410       .  A
C1079      C1088   1.398       .  A
C1079      C1080   1.403       .  A
C1080      C1081   1.397       .  A
C1080      H1091   1.084       .  S
C1081      C1082   1.402       .  A
C1081      H1092   1.084       .  S
C1082      C1083   1.402       .  A
C1083      C1084   1.406       .  A
C1083      H1093   1.084       .  S
C1084      C1085   1.410       .  A
C1085      H1094   1.084       .  S
C1086      C1087   1.412       .  A
C1086      H1095   1.080       .  S
C1087      C1088   1.411       .  A
C1088      H1096   1.085       .  S
C1097      C1098   1.399       .  A
C1097      C1102   1.403       .  A
C1097      H1113   1.084       .  S
C1098      C1099   1.403       .  A
C1098      H1114   1.084       .  S
C1099      C1109   1.403       .  A
C1099      C1100   1.412       .  A
C1100      C1106   1.411       .  A
C1100      C1101   1.412       .  A
C1101      C1103   1.412       .  A
C1101      C1102   1.411       .  A
C1102      C1110   1.402       .  A
C1103      C1112   1.404       .  A
C1103      C1104   1.404       .  A
C1104      C1105   1.399       .  A
C1104      H1115   1.084       .  S
C1105      C1106   1.403       .  A
C1105      H1116   1.084       .  S
C1106      C1107   1.402       .  A
C1107      C1108   1.407       .  A
C1107      H1117   1.084       .  S
C1108      C1109   1.407       .  A
C1109      H1118   1.084       .  S
C1110      C1111   1.407       .  A
C1110      H1119   1.084       .  S
C1111      C1112   1.407       .  A
C1112      H1120   1.084       .  S
C1121      C1122   1.398   1_556  A
C1121      C1126   1.403       .  A
C1121      H1137   1.084       .  S
C1122      C1123   1.403       .  A
C1122      H1138   1.084       .  S
C1123      C1133   1.401       .  A
C1123      C1124   1.411       .  A
C1124      C1130   1.411       .  A
C1124      C1125   1.411   1_554  A
C1125      C1127   1.411       .  A
C1125      C1126   1.411       .  A
C1126      C1134   1.401       .  A
C1127      C1136   1.402       .  A
C1127      C1128   1.403       .  A
C1128      C1129   1.399   1_556  A
C1128      H1139   1.084       .  S
C1129      C1130   1.403       .  A
C1129      H1140   1.084       .  S
C1130      C1131   1.402       .  A
C1131      C1132   1.407       .  A
C1131      H1141   1.084       .  S
C1132      C1133   1.406       .  A
C1133      H1142   1.084       .  S
C1134      C1135   1.406       .  A
C1134      H1143   1.083       .  S
C1135      C1136   1.408       .  A
C1136      H1144   1.084       .  S
C1145      C1146   1.399       .  A
C1145      C1150   1.404       .  A
C1145      H1161   1.083       .  S
C1146      C1147   1.404       .  A
C1146      H1162   1.084       .  S
C1147      C1157   1.403       .  A
C1147      C1148   1.411       .  A
C1148      C1154   1.412       .  A
C1148      C1149   1.415       .  A
C1149      C1151   1.411       .  A
C1149      C1150   1.411       .  A
C1150      C1158   1.406       .  A
C1151      C1160   1.408       .  A
C1151      C1152   1.404       .  A
C1152      C1153   1.402       .  A
C1152      H1163   1.083       .  S
C1153      C1154   1.404       .  A
C1153      H1164   1.083       .  S
C1154      C1155   1.409       .  A
C1155      C1156   1.409       .  A
C1155      H1165   1.084       .  S
C1156      C1157   1.408       .  A
C1157      H1166   1.084       .  S
C1158      C1159   1.410       .  A
C1158      H1167   1.084       .  S
C1159      C1160   1.408       .  A
C1160      H1168   1.084       .  S
C1169      C1170   1.401       .  A
C1169      C1174   1.405       .  A
C1169      H1185   1.083       .  S
C1170      C1171   1.404       .  A
C1170      H1186   1.083       .  S
C1171      C1181   1.410       .  A
C1171      C1172   1.412       .  A
C1172      C1178   1.407       .  A
C1172      C1173   1.414       .  A
C1173      C1175   1.413       .  A
C1173      C1174   1.410       .  A
C1174      C1182   1.405       .  A
C1175      C1184   1.405       .  A
C1175      C1176   1.403       .  A
C1176      C1177   1.398       .  A
C1176      H1187   1.084       .  S
C1177      C1178   1.404       .  A
C1177      H1188   1.084       .  S
C1178      C1179   1.400       .  A
C1179      C1180   1.413       .  A
C1179      H1189   1.083       .  S
C1180      C1181   1.412       .  A
C1181      H1190   1.081       .  S
C1182      C1183   1.409       .  A
C1182      H1191   1.084       .  S
C1183      C1184   1.407       .  A
C1184      H1192   1.084       .  S
C1193      C1194   1.400       .  A
C1193      C1198   1.405       .  A
C1193      H1209   1.083       .  S
C1194      C1195   1.404       .  A
C1194      H1210   1.084       .  S
C1195      C1205   1.404       .  A
C1195      C1196   1.411       .  A
C1196      C1202   1.412       .  A
C1196      C1197   1.416       .  A
C1197      C1199   1.411       .  A
C1197      C1198   1.411       .  A
C1198      C1206   1.407       .  A
C1199      C1208   1.408       .  A
C1199      C1200   1.405       .  A
C1200      C1201   1.401       .  A
C1200      H1211   1.083       .  S
C1201      C1202   1.404       .  A
C1201      H1212   1.083       .  S
C1202      C1203   1.408       .  A
C1203      C1204   1.409       .  A
C1203      H1213   1.084       .  S
C1204      C1205   1.408       .  A
C1205      H1214   1.084       .  S
C1206      C1207   1.410       .  A
C1206      H1215   1.084       .  S
C1207      C1208   1.409       .  A
C1208      H1216   1.084       .  S
C1217      C1218   1.402       .  A
C1217      C1222   1.405       .  A
C1217      H1233   1.083       .  S
C1218      C1219   1.405       .  A
C1218      H1234   1.083       .  S
C1219      C1229   1.408       .  A
C1219      C1220   1.410       .  A
C1220      C1226   1.412       .  A
C1220      C1221   1.415       .  A
C1221      C1223   1.408       .  A
C1221      C1222   1.413       .  A
C1222      C1230   1.411       .  A
C1223      C1232   1.398       .  A
C1223      C1224   1.403       .  A
C1224      C1225   1.398       .  A
C1224      H1235   1.084       .  S
C1225      C1226   1.403       .  A
C1225      H1236   1.084       .  S
C1226      C1227   1.404       .  A
C1227      C1228   1.407       .  A
C1227      H1237   1.084       .  S
C1228      C1229   1.410       .  A
C1229      H1238   1.084       .  S
C1230      C1231   1.412       .  A
C1230      H1239   1.080       .  S
C1231      C1232   1.412       .  A
C1232      H1240   1.085       .  S
C1241      C1242   1.400       .  A
C1241      C1246   1.404       .  A
C1241      H1257   1.083       .  S
C1242      C1243   1.404       .  A
C1242      H1258   1.084       .  S
C1243      C1253   1.405       .  A
C1243      C1244   1.412       .  A
C1244      C1250   1.411       .  A
C1244      C1245   1.413       .  A
C1245      C1247   1.411       .  A
C1245      C1246   1.411       .  A
C1246      C1254   1.405       .  A
C1247      C1256   1.403       .  A
C1247      C1248   1.404       .  A
C1248      C1249   1.399       .  A
C1248      H1259   1.084       .  S
C1249      C1250   1.403       .  A
C1249      H1260   1.084       .  S
C1250      C1251   1.403       .  A
C1251      C1252   1.407       .  A
C1251      H1261   1.084       .  S
C1252      C1253   1.407       .  A
C1253      H1262   1.084       .  S
C1254      C1255   1.408       .  A
C1254      H1263   1.084       .  S
C1255      C1256   1.408       .  A
C1256      H1264   1.084       .  S
C1265      C1266   1.400   1_556  A
C1265      C1270   1.404       .  A
C1265      H1281   1.084       .  S
C1266      C1267   1.404       .  A
C1266      H1282   1.083       .  S
C1267      C1277   1.405       .  A
C1267      C1268   1.413       .  A
C1268      C1274   1.411       .  A
C1268      C1269   1.413   1_554  A
C1269      C1271   1.412       .  A
C1269      C1270   1.411       .  A
C1270      C1278   1.403       .  A
C1271      C1280   1.403       .  A
C1271      C1272   1.403       .  A
C1272      C1273   1.399   1_556  A
C1272      H1283   1.084       .  S
C1273      C1274   1.404       .  A
C1273      H1284   1.084       .  S
C1274      C1275   1.402       .  A
C1275      C1276   1.406       .  A
C1275      H1285   1.084       .  S
C1276      C1277   1.405       .  A
C1277      H1286   1.084       .  S
C1278      C1279   1.407       .  A
C1278      H1287   1.084       .  S
C1279      C1280   1.405       .  A
C1280      H1288   1.084       .  S
C1289      C1290   1.401       .  A
C1289      C1294   1.404       .  A
C1289      H1305   1.083       .  S
C1290      C1291   1.405       .  A
C1290      H1306   1.083       .  S
C1291      C1301   1.406       .  A
C1291      C1292   1.410       .  A
C1292      C1298   1.413       .  A
C1292      C1293   1.416       .  A
C1293      C1295   1.407       .  A
C1293      C1294   1.412       .  A
C1294      C1302   1.409       .  A
C1295      C1304   1.402       .  A
C1295      C1296   1.405       .  A
C1296      C1297   1.399       .  A
C1296      H1307   1.084       .  S
C1297      C1298   1.403       .  A
C1297      H1308   1.084       .  S
C1298      C1299   1.407       .  A
C1299      C1300   1.407       .  A
C1299      H1309   1.084       .  S
C1300      C1301   1.410       .  A
C1301      H1310   1.084       .  S
C1302      C1303   1.412       .  A
C1302      H1311   1.083       .  S
C1303      C1304   1.416       .  A
C1304      H1312   1.079       .  S
C1313      C1314   1.402       .  A
C1313      C1318   1.405       .  A
C1313      H1329   1.083       .  S
C1314      C1315   1.405       .  A
C1314      H1330   1.083       .  S
C1315      C1325   1.408       .  A
C1315      C1316   1.411       .  A
C1316      C1322   1.412       .  A
C1316      C1317   1.416       .  A
C1317      C1319   1.409       .  A
C1317      C1318   1.411       .  A
C1318      C1326   1.410       .  A
C1319      C1328   1.403       .  A
C1319      C1320   1.404       .  A
C1320      C1321   1.399       .  A
C1320      H1331   1.084       .  S
C1321      C1322   1.403       .  A
C1321      H1332   1.084       .  S
C1322      C1323   1.406       .  A
C1323      C1324   1.408       .  A
C1323      H1333   1.084       .  S
C1324      C1325   1.410       .  A
C1325      H1334   1.084       .  S
C1326      C1327   1.413       .  A
C1326      H1335   1.080       .  S
C1327      C1328   1.413       .  A
C1328      H1336   1.083       .  S
C1337      C1338   1.399       .  A
C1337      C1342   1.403       .  A
C1337      H1353   1.083       .  S
C1338      C1339   1.403       .  A
C1338      H1354   1.084       .  S
C1339      C1349   1.403       .  A
C1339      C1340   1.412       .  A
C1340      C1346   1.411       .  A
C1340      C1341   1.412       .  A
C1341      C1343   1.411       .  A
C1341      C1342   1.412       .  A
C1342      C1350   1.403       .  A
C1343      C1352   1.403       .  A
C1343      C1344   1.404       .  A
C1344      C1345   1.399       .  A
C1344      H1355   1.084       .  S
C1345      C1346   1.404       .  A
C1345      H1356   1.084       .  S
C1346      C1347   1.402       .  A
C1347      C1348   1.407       .  A
C1347      H1357   1.084       .  S
C1348      C1349   1.406       .  A
C1349      H1358   1.084       .  S
C1350      C1351   1.406       .  A
C1350      H1359   1.084       .  S
C1351      C1352   1.407       .  A
C1352      H1360   1.084       .  S
C1361      C1362   1.404       .  A
C1361      C1366   1.406       .  A
C1361      H1377   1.083       .  S
C1362      C1363   1.406       .  A
C1362      H1378   1.083       .  S
C1363      C1373   1.411       .  A
C1363      C1364   1.412       .  A
C1364      C1370   1.410       .  A
C1364      C1365   1.413       .  A
C1365      C1367   1.410       .  A
C1365      C1366   1.412       .  A
C1366      C1374   1.410       .  A
C1367      C1376   1.397       .  A
C1367      C1368   1.402       .  A
C1368      C1369   1.395       .  A
C1368      H1379   1.084       .  S
C1369      C1370   1.402       .  A
C1369      H1380   1.084       .  S
C1370      C1371   1.397       .  A
C1371      C1372   1.406       .  A
C1371      H1381   1.084       .  S
C1372      C1373   1.409       .  A
C1373      H1382   1.084       .  S
C1374      C1375   1.409       .  A
C1374      H1383   1.084       .  S
C1375      C1376   1.405       .  A
C1376      H1384   1.084       .  S
C1385      C1386   1.396       .  A
C1385      C1390   1.402       .  A
C1385      H1401   1.084       .  S
C1386      C1387   1.402       .  A
C1386      H1402   1.084       .  S
C1387      C1397   1.397       .  A
C1387      C1388   1.411       .  A
C1388      C1394   1.413       .  A
C1388      C1389   1.411       .  A
C1389      C1391   1.413       .  A
C1389      C1390   1.412       .  A
C1390      C1398   1.398       .  A
C1391      C1400   1.407       .  A
C1391      C1392   1.405       .  A
C1392      C1393   1.402       .  A
C1392      H1403   1.084       .  S
C1393      C1394   1.404       .  A
C1393      H1404   1.083       .  S
C1394      C1395   1.407       .  A
C1395      C1396   1.405       .  A
C1395      H1405   1.084       .  S
C1396      C1397   1.403       .  A
C1397      H1406   1.085       .  S
C1398      C1399   1.403       .  A
C1398      H1407   1.085       .  S
C1399      C1400   1.405       .  A
C1400      H1408   1.084       .  S
C1409      C1410   1.399   1_554  A
C1409      C1414   1.403       .  A
C1409      H1425   1.084       .  S
C1410      C1411   1.404       .  A
C1410      H1426   1.084       .  S
C1411      C1421   1.403       .  A
C1411      C1412   1.410       .  A
C1412      C1418   1.412       .  A
C1412      C1413   1.413   1_556  A
C1413      C1415   1.410       .  A
C1413      C1414   1.412       .  A
C1414      C1422   1.405       .  A
C1415      C1424   1.404       .  A
C1415      C1416   1.404       .  A
C1416      C1417   1.400   1_554  A
C1416      H1427   1.084       .  S
C1417      C1418   1.404       .  A
C1417      H1428   1.084       .  S
C1418      C1419   1.406       .  A
C1419      C1420   1.407       .  A
C1419      H1429   1.084       .  S
C1420      C1421   1.408       .  A
C1421      H1430   1.083       .  S
C1422      C1423   1.407       .  A
C1422      H1431   1.084       .  S
C1423      C1424   1.409       .  A
C1424      H1432   1.084       .  S
C1433      C1434   1.400       .  A
C1433      C1438   1.404       .  A
C1433      H1449   1.084       .  S
C1434      C1435   1.404       .  A
C1434      H1450   1.084       .  S
C1435      C1445   1.405       .  A
C1435      C1436   1.411       .  A
C1436      C1442   1.412       .  A
C1436      C1437   1.415       .  A
C1437      C1439   1.411       .  A
C1437      C1438   1.412       .  A
C1438      C1446   1.406       .  A
C1439      C1448   1.405       .  A
C1439      C1440   1.404       .  A
C1440      C1441   1.400       .  A
C1440      H1451   1.084       .  S
C1441      C1442   1.404       .  A
C1441      H1452   1.083       .  S
C1442      C1443   1.407       .  A
C1443      C1444   1.408       .  A
C1443      H1453   1.084       .  S
C1444      C1445   1.409       .  A
C1445      H1454   1.084       .  S
C1446      C1447   1.408       .  A
C1446      H1455   1.084       .  S
C1447      C1448   1.408       .  A
C1448      H1456   1.084       .  S
C1457      C1458   1.401       .  A
C1457      C1462   1.404       .  A
C1457      H1473   1.083       .  S
C1458      C1459   1.404       .  A
C1458      H1474   1.084       .  S
C1459      C1469   1.407       .  A
C1459      C1460   1.411       .  A
C1460      C1466   1.412       .  A
C1460      C1461   1.419       .  A
C1461      C1463   1.412       .  A
C1461      C1462   1.411       .  A
C1462      C1470   1.407       .  A
C1463      C1472   1.412       .  A
C1463      C1464   1.405       .  A
C1464      C1465   1.403       .  A
C1464      H1475   1.083       .  S
C1465      C1466   1.405       .  A
C1465      H1476   1.083       .  S
C1466      C1467   1.412       .  A
C1467      C1468   1.411       .  A
C1467      H1477   1.084       .  S
C1468      C1469   1.409       .  A
C1469      H1478   1.084       .  S
C1470      C1471   1.411       .  A
C1470      H1479   1.084       .  S
C1471      C1472   1.410       .  A
C1472      H1480   1.084       .  S
C1481      C1482   1.398       .  A
C1481      C1486   1.402       .  A
C1481      H1497   1.084       .  S
C1482      C1483   1.404       .  A
C1482      H1498   1.084       .  S
C1483      C1493   1.402       .  A
C1483      C1484   1.408       .  A
C1484      C1490   1.411       .  A
C1484      C1485   1.417       .  A
C1485      C1487   1.410       .  A
C1485      C1486   1.412       .  A
C1486      C1494   1.405       .  A
C1487      C1496   1.410       .  A
C1487      C1488   1.406       .  A
C1488      C1489   1.404       .  A
C1488      H1499   1.083       .  S
C1489      C1490   1.406       .  A
C1489      H1500   1.083       .  S
C1490      C1491   1.411       .  A
C1491      C1492   1.415       .  A
C1491      H1501   1.084       .  S
C1492      C1493   1.415       .  A
C1493      H1502   1.076       .  S
C1494      C1495   1.406       .  A
C1494      H1503   1.084       .  S
C1495      C1496   1.413       .  A
C1496      H1504   1.084       .  S
C1505      C1506   1.397       .  A
C1505      C1510   1.403       .  A
C1505      H1521   1.084       .  S
C1506      C1507   1.403       .  A
C1506      H1522   1.084       .  S
C1507      C1517   1.402       .  A
C1507      C1508   1.411       .  A
C1508      C1514   1.412       .  A
C1508      C1509   1.414       .  A
C1509      C1511   1.413       .  A
C1509      C1510   1.410       .  A
C1510      C1518   1.400       .  A
C1511      C1520   1.411       .  A
C1511      C1512   1.405       .  A
C1512      C1513   1.403       .  A
C1512      H1523   1.083       .  S
C1513      C1514   1.405       .  A
C1513      H1524   1.083       .  S
C1514      C1515   1.409       .  A
C1515      C1516   1.409       .  A
C1515      H1525   1.084       .  S
C1516      C1517   1.408       .  A
C1517      H1526   1.084       .  S
C1518      C1519   1.407       .  A
C1518      H1527   1.084       .  S
C1519      C1520   1.409       .  A
C1520      H1528   1.084       .  S
C1529      C1530   1.403       .  A
C1529      C1534   1.405       .  A
C1529      H1545   1.083       .  S
C1530      C1531   1.406       .  A
C1530      H1546   1.083       .  S
C1531      C1541   1.412       .  A
C1531      C1532   1.412       .  A
C1532      C1538   1.411       .  A
C1532      C1533   1.419       .  A
C1533      C1535   1.412       .  A
C1533      C1534   1.411       .  A
C1534      C1542   1.410       .  A
C1535      C1544   1.409       .  A
C1535      C1536   1.404       .  A
C1536      C1537   1.401       .  A
C1536      H1547   1.083       .  S
C1537      C1538   1.404       .  A
C1537      H1548   1.083       .  S
C1538      C1539   1.408       .  A
C1539      C1540   1.410       .  A
C1539      H1549   1.084       .  S
C1540      C1541   1.412       .  A
C1541      H1550   1.084       .  S
C1542      C1543   1.411       .  A
C1542      H1551   1.084       .  S
C1543      C1544   1.410       .  A
C1544      H1552   1.084       .  S
C1553      C1554   1.400       .  A
C1553      C1558   1.403       .  A
C1553      H1569   1.083       .  S
C1554      C1555   1.404       .  A
C1554      H1570   1.083       .  S
C1555      C1565   1.405       .  A
C1555      C1556   1.409       .  A
C1556      C1562   1.410       .  A
C1556      C1557   1.418       .  A
C1557      C1559   1.411       .  A
C1557      C1558   1.412       .  A
C1558      C1566   1.407       .  A
C1559      C1568   1.411       .  A
C1559      C1560   1.405       .  A
C1560      C1561   1.403       .  A
C1560      H1571   1.083       .  S
C1561      C1562   1.406       .  A
C1561      H1572   1.084       .  S
C1562      C1563   1.410       .  A
C1563      C1564   1.416       .  A
C1563      H1573   1.081       .  S
C1564      C1565   1.412       .  A
C1565      H1574   1.083       .  S
C1566      C1567   1.408       .  A
C1566      H1575   1.084       .  S
C1567      C1568   1.412       .  A
C1568      H1576   1.084       .  S
C1577      C1578   1.397       .  A
C1577      C1582   1.403       .  A
C1577      H1593   1.084       .  S
C1578      C1579   1.403       .  A
C1578      H1594   1.084       .  S
C1579      C1589   1.401       .  A
C1579      C1580   1.411       .  A
C1580      C1586   1.411       .  A
C1580      C1581   1.411       .  A
C1581      C1583   1.412       .  A
C1581      C1582   1.410       .  A
C1582      C1590   1.399       .  A
C1583      C1592   1.405       .  A
C1583      C1584   1.404       .  A
C1584      C1585   1.400       .  A
C1584      H1595   1.084       .  S
C1585      C1586   1.404       .  A
C1585      H1596   1.083       .  S
C1586      C1587   1.404       .  A
C1587      C1588   1.407       .  A
C1587      H1597   1.084       .  S
C1588      C1589   1.406       .  A
C1589      H1598   1.084       .  S
C1590      C1591   1.406       .  A
C1590      H1599   1.084       .  S
C1591      C1592   1.407       .  A
C1592      H1600   1.084       .  S
C1601      C1602   1.403       .  A
C1601      C1606   1.405       .  A
C1601      H1617   1.083       .  S
C1602      C1603   1.405       .  A
C1602      H1618   1.083       .  S
C1603      C1613   1.410       .  A
C1603      C1604   1.413       .  A
C1604      C1610   1.411       .  A
C1604      C1605   1.412       .  A
C1605      C1607   1.411       .  A
C1605      C1606   1.413       .  A
C1606      C1614   1.408       .  A
C1607      C1616   1.397       .  A
C1607      C1608   1.402       .  A
C1608      C1609   1.395       .  A
C1608      H1619   1.084       .  S
C1609      C1610   1.402       .  A
C1609      H1620   1.084       .  S
C1610      C1611   1.397       .  A
C1611      C1612   1.405       .  A
C1611      H1621   1.085       .  S
C1612      C1613   1.406       .  A
C1613      H1622   1.084       .  S
C1614      C1615   1.406       .  A
C1614      H1623   1.084       .  S
C1615      C1616   1.404       .  A
C1616      H1624   1.085       .  S
C1625      C1626   1.400       .  A
C1625      C1630   1.404       .  A
C1625      H1641   1.083       .  S
C1626      C1627   1.404       .  A
C1626      H1642   1.084       .  S
C1627      C1637   1.402       .  A
C1627      C1628   1.411       .  A
C1628      C1634   1.412       .  A
C1628      C1629   1.408       .  A
C1629      C1631   1.410       .  A
C1629      C1630   1.411       .  A
C1630      C1638   1.404       .  A
C1631      C1640   1.395       .  A
C1631      C1632   1.402       .  A
C1632      C1633   1.395       .  A
C1632      H1643   1.084       .  S
C1633      C1634   1.401       .  A
C1633      H1644   1.084       .  S
C1634      C1635   1.396       .  A
C1635      C1636   1.401       .  A
C1635      H1645   1.085       .  S
C1636      C1637   1.403       .  A
C1637      H1646   1.077       .  S
C1638      C1639   1.404       .  A
C1638      H1647   1.075       .  S
C1639      C1640   1.403       .  A
C1640      H1648   1.085       .  S
C1649      C1650   1.399   1_556  A
C1649      C1654   1.404       .  A
C1649      H1665   1.083       .  S
C1650      C1651   1.403       .  A
C1650      H1666   1.084       .  S
C1651      C1661   1.404       .  A
C1651      C1652   1.412       .  A
C1652      C1658   1.409       .  A
C1652      C1653   1.413   1_554  A
C1653      C1655   1.412       .  A
C1653      C1654   1.409       .  A
C1654      C1662   1.402       .  A
C1655      C1664   1.407       .  A
C1655      C1656   1.404       .  A
C1656      C1657   1.400   1_556  A
C1656      H1667   1.084       .  S
C1657      C1658   1.405       .  A
C1657      H1668   1.084       .  S
C1658      C1659   1.403       .  A
C1659      C1660   1.408       .  A
C1659      H1669   1.076       .  S
C1660      C1661   1.408       .  A
C1661      H1670   1.084       .  S
C1662      C1663   1.409       .  A
C1662      H1671   1.083       .  S
C1663      C1664   1.409       .  A
C1664      H1672   1.083       .  S
C1673      C1674   1.397       .  A
C1673      C1678   1.403       .  A
C1673      H1689   1.084       .  S
C1674      C1675   1.403       .  A
C1674      H1690   1.084       .  S
C1675      C1685   1.400       .  A
C1675      C1676   1.411       .  A
C1676      C1682   1.412       .  A
C1676      C1677   1.412       .  A
C1677      C1679   1.412       .  A
C1677      C1678   1.411       .  A
C1678      C1686   1.400       .  A
C1679      C1688   1.405       .  A
C1679      C1680   1.404       .  A
C1680      C1681   1.400       .  A
C1680      H1691   1.084       .  S
C1681      C1682   1.404       .  A
C1681      H1692   1.083       .  S
C1682      C1683   1.406       .  A
C1683      C1684   1.407       .  A
C1683      H1693   1.084       .  S
C1684      C1685   1.406       .  A
C1685      H1694   1.084       .  S
C1686      C1687   1.406       .  A
C1686      H1695   1.084       .  S
C1687      C1688   1.407       .  A
C1688      H1696   1.084       .  S
C1697      C1698   1.397       .  A
C1697      C1702   1.403       .  A
C1697      H1713   1.084       .  S
C1698      C1699   1.402       .  A
C1698      H1714   1.084       .  S
C1699      C1709   1.404       .  A
C1699      C1700   1.413       .  A
C1700      C1706   1.410       .  A
C1700      C1701   1.417       .  A
C1701      C1703   1.414       .  A
C1701      C1702   1.407       .  A
C1702      C1710   1.398       .  A
C1703      C1712   1.416       .  A
C1703      C1704   1.406       .  A
C1704      C1705   1.405       .  A
C1704      H1715   1.083       .  S
C1705      C1706   1.407       .  A
C1705      H1716   1.083       .  S
C1706      C1707   1.412       .  A
C1707      C1708   1.413       .  A
C1707      H1717   1.084       .  S
C1708      C1709   1.406       .  A
C1709      H1718   1.084       .  S
C1710      C1711   1.413       .  A
C1710      H1719   1.084       .  S
C1711      C1712   1.413       .  A
C1712      H1720   1.081       .  S
C1721      C1722   1.404       .  A
C1721      C1726   1.406       .  A
C1721      H1737   1.083       .  S
C1722      C1723   1.405       .  A
C1722      H1738   1.083       .  S
C1723      C1733   1.413       .  A
C1723      C1724   1.413       .  A
C1724      C1730   1.410       .  A
C1724      C1725   1.417       .  A
C1725      C1727   1.411       .  A
C1725      C1726   1.412       .  A
C1726      C1734   1.411       .  A
C1727      C1736   1.403       .  A
C1727      C1728   1.403       .  A
C1728      C1729   1.398       .  A
C1728      H1739   1.084       .  S
C1729      C1730   1.403       .  A
C1729      H1740   1.084       .  S
C1730      C1731   1.402       .  A
C1731      C1732   1.408       .  A
C1731      H1741   1.084       .  S
C1732      C1733   1.410       .  A
C1733      H1742   1.084       .  S
C1734      C1735   1.410       .  A
C1734      H1743   1.084       .  S
C1735      C1736   1.408       .  A
C1736      H1744   1.084       .  S
C1745      C1746   1.398       .  A
C1745      C1750   1.403       .  A
C1745      H1761   1.084       .  S
C1746      C1747   1.404       .  A
C1746      H1762   1.084       .  S
C1747      C1757   1.399       .  A
C1747      C1748   1.408       .  A
C1748      C1754   1.412       .  A
C1748      C1749   1.414       .  A
C1749      C1751   1.411       .  A
C1749      C1750   1.412       .  A
C1750      C1758   1.404       .  A
C1751      C1760   1.407       .  A
C1751      C1752   1.405       .  A
C1752      C1753   1.401       .  A
C1752      H1763   1.083       .  S
C1753      C1754   1.405       .  A
C1753      H1764   1.083       .  S
C1754      C1755   1.410       .  A
C1755      C1756   1.412       .  A
C1755      H1765   1.079       .  S
C1756      C1757   1.412       .  A
C1757      H1766   1.085       .  S
C1758      C1759   1.407       .  A
C1758      H1767   1.084       .  S
C1759      C1760   1.409       .  A
C1760      H1768   1.084       .  S
C1769      C1770   1.398       .  A
C1769      C1774   1.403       .  A
C1769      H1785   1.084       .  S
C1770      C1771   1.403       .  A
C1770      H1786   1.084       .  S
C1771      C1781   1.401       .  A
C1771      C1772   1.410       .  A
C1772      C1778   1.412       .  A
C1772      C1773   1.412       .  A
C1773      C1775   1.411       .  A
C1773      C1774   1.412       .  A
C1774      C1782   1.403       .  A
C1775      C1784   1.403       .  A
C1775      C1776   1.404       .  A
C1776      C1777   1.400       .  A
C1776      H1787   1.084       .  S
C1777      C1778   1.404       .  A
C1777      H1788   1.083       .  S
C1778      C1779   1.406       .  A
C1779      C1780   1.408       .  A
C1779      H1789   1.084       .  S
C1780      C1781   1.407       .  A
C1781      H1790   1.084       .  S
C1782      C1783   1.407       .  A
C1782      H1791   1.084       .  S
C1783      C1784   1.407       .  A
C1784      H1792   1.084       .  S
C1793      C1794   1.402       .  A
C1793      C1798   1.405       .  A
C1793      H1809   1.083       .  S
C1794      C1795   1.404       .  A
C1794      H1810   1.084       .  S
C1795      C1805   1.407       .  A
C1795      C1796   1.413       .  A
C1796      C1802   1.411       .  A
C1796      C1797   1.411       .  A
C1797      C1799   1.412       .  A
C1797      C1798   1.412       .  A
C1798      C1806   1.407       .  A
C1799      C1808   1.397       .  A
C1799      C1800   1.402       .  A
C1800      C1801   1.395       .  A
C1800      H1811   1.084       .  S
C1801      C1802   1.402       .  A
C1801      H1812   1.084       .  S
C1802      C1803   1.396       .  A
C1803      C1804   1.404       .  A
C1803      H1813   1.085       .  S
C1804      C1805   1.405       .  A
C1805      H1814   1.084       .  S
C1806      C1807   1.406       .  A
C1806      H1815   1.084       .  S
C1807      C1808   1.403       .  A
C1808      H1816   1.084       .  S
C1817      C1818   1.396       .  A
C1817      C1822   1.402       .  A
C1817      H1833   1.084       .  S
C1818      C1819   1.402       .  A
C1818      H1834   1.083       .  S
C1819      C1829   1.397       .  A
C1819      C1820   1.410       .  A
C1820      C1826   1.412       .  A
C1820      C1821   1.411       .  A
C1821      C1823   1.411       .  A
C1821      C1822   1.411       .  A
C1822      C1830   1.398       .  A
C1823      C1832   1.405       .  A
C1823      C1824   1.404       .  A
C1824      C1825   1.401       .  A
C1824      H1835   1.083       .  S
C1825      C1826   1.404       .  A
C1825      H1836   1.084       .  S
C1826      C1827   1.406       .  A
C1827      C1828   1.407       .  A
C1827      H1837   1.084       .  S
C1828      C1829   1.405       .  A
C1829      H1838   1.084       .  S
C1830      C1831   1.404       .  A
C1830      H1839   1.084       .  S
C1831      C1832   1.407       .  A
C1832      H1840   1.083       .  S
C1841      C1842   1.401   1_554  A
C1841      C1846   1.404       .  A
C1841      H1857   1.084       .  S
C1842      C1843   1.405       .  A
C1842      H1858   1.084       .  S
C1843      C1853   1.406       .  A
C1843      C1844   1.410       .  A
C1844      C1850   1.412       .  A
C1844      C1845   1.415   1_556  A
C1845      C1847   1.410       .  A
C1845      C1846   1.412       .  A
C1846      C1854   1.408       .  A
C1847      C1856   1.403       .  A
C1847      C1848   1.404       .  A
C1848      C1849   1.400   1_554  A
C1848      H1859   1.084       .  S
C1849      C1850   1.404       .  A
C1849      H1860   1.083       .  S
C1850      C1851   1.406       .  A
C1851      C1852   1.409       .  A
C1851      H1861   1.083       .  S
C1852      C1853   1.410       .  A
C1853      H1862   1.083       .  S
C1854      C1855   1.409       .  A
C1854      H1863   1.083       .  S
C1855      C1856   1.410       .  A
C1856      H1864   1.084       .  S
C1865      C1866   1.401       .  A
C1865      C1870   1.404       .  A
C1865      H1881   1.084       .  S
C1866      C1867   1.405       .  A
C1866      H1882   1.084       .  S
C1867      C1877   1.407       .  A
C1867      C1868   1.411       .  A
C1868      C1874   1.412       .  A
C1868      C1869   1.415       .  A
C1869      C1871   1.411       .  A
C1869      C1870   1.412       .  A
C1870      C1878   1.407       .  A
C1871      C1880   1.404       .  A
C1871      C1872   1.404       .  A
C1872      C1873   1.400       .  A
C1872      H1883   1.084       .  S
C1873      C1874   1.404       .  A
C1873      H1884   1.083       .  S
C1874      C1875   1.406       .  A
C1875      C1876   1.408       .  A
C1875      H1885   1.084       .  S
C1876      C1877   1.410       .  A
C1877      H1886   1.084       .  S
C1878      C1879   1.409       .  A
C1878      H1887   1.084       .  S
C1879      C1880   1.407       .  A
C1880      H1888   1.084       .  S
C1889      C1890   1.400       .  A
C1889      C1894   1.404       .  A
C1889      H1905   1.083       .  S
C1890      C1891   1.404       .  A
C1890      H1906   1.083       .  S
C1891      C1901   1.406       .  A
C1891      C1892   1.411       .  A
C1892      C1898   1.411       .  A
C1892      C1893   1.417       .  A
C1893      C1895   1.412       .  A
C1893      C1894   1.411       .  A
C1894      C1902   1.405       .  A
C1895      C1904   1.409       .  A
C1895      C1896   1.405       .  A
C1896      C1897   1.402       .  A
C1896      H1907   1.083       .  S
C1897      C1898   1.405       .  A
C1897      H1908   1.084       .  S
C1898      C1899   1.409       .  A
C1899      C1900   1.410       .  A
C1899      H1909   1.084       .  S
C1900      C1901   1.408       .  A
C1901      H1910   1.084       .  S
C1902      C1903   1.408       .  A
C1902      H1911   1.084       .  S
C1903      C1904   1.411       .  A
C1904      H1912   1.084       .  S
C1913      C1914   1.398       .  A
C1913      C1918   1.403       .  A
C1913      H1929   1.084       .  S
C1914      C1915   1.402       .  A
C1914      H1930   1.084       .  S
C1915      C1925   1.404       .  A
C1915      C1916   1.412       .  A
C1916      C1922   1.411       .  A
C1916      C1917   1.417       .  A
C1917      C1919   1.412       .  A
C1917      C1918   1.408       .  A
C1918      C1926   1.401       .  A
C1919      C1928   1.414       .  A
C1919      C1920   1.406       .  A
C1920      C1921   1.404       .  A
C1920      H1931   1.083       .  S
C1921      C1922   1.406       .  A
C1921      H1932   1.083       .  S
C1922      C1923   1.411       .  A
C1923      C1924   1.412       .  A
C1923      H1933   1.084       .  S
C1924      C1925   1.407       .  A
C1925      H1934   1.084       .  S
C1926      C1927   1.412       .  A
C1926      H1935   1.083       .  S
C1927      C1928   1.415       .  A
C1928      H1936   1.081       .  S
C1937      C1938   1.400       .  A
C1937      C1942   1.404       .  A
C1937      H1953   1.083       .  S
C1938      C1939   1.404       .  A
C1938      H1954   1.084       .  S
C1939      C1949   1.406       .  A
C1939      C1940   1.411       .  A
C1940      C1946   1.412       .  A
C1940      C1941   1.417       .  A
C1941      C1943   1.411       .  A
C1941      C1942   1.412       .  A
C1942      C1950   1.407       .  A
C1943      C1952   1.408       .  A
C1943      C1944   1.405       .  A
C1944      C1945   1.402       .  A
C1944      H1955   1.083       .  S
C1945      C1946   1.405       .  A
C1945      H1956   1.083       .  S
C1946      C1947   1.410       .  A
C1947      C1948   1.410       .  A
C1947      H1957   1.084       .  S
C1948      C1949   1.409       .  A
C1949      H1958   1.084       .  S
C1950      C1951   1.409       .  A
C1950      H1959   1.084       .  S
C1951      C1952   1.410       .  A
C1952      H1960   1.084       .  S
C1961      C1962   1.401       .  A
C1961      C1966   1.405       .  A
C1961      H1977   1.083       .  S
C1962      C1963   1.404       .  A
C1962      H1978   1.084       .  S
C1963      C1973   1.407       .  A
C1963      C1964   1.411       .  A
C1964      C1970   1.412       .  A
C1964      C1965   1.417       .  A
C1965      C1967   1.411       .  A
C1965      C1966   1.412       .  A
C1966      C1974   1.408       .  A
C1967      C1976   1.409       .  A
C1967      C1968   1.405       .  A
C1968      C1969   1.402       .  A
C1968      H1979   1.083       .  S
C1969      C1970   1.404       .  A
C1969      H1980   1.083       .  S
C1970      C1971   1.409       .  A
C1971      C1972   1.409       .  A
C1971      H1981   1.084       .  S
C1972      C1973   1.410       .  A
C1973      H1982   1.084       .  S
C1974      C1975   1.410       .  A
C1974      H1983   1.084       .  S
C1975      C1976   1.410       .  A
C1976      H1984   1.084       .  S
C1985      C1986   1.403       .  A
C1985      C1990   1.405       .  A
C1985      H2001   1.083       .  S
C1986      C1987   1.405       .  A
C1986      H2002   1.083       .  S
C1987      C1997   1.408       .  A
C1987      C1988   1.410       .  A
C1988      C1994   1.413       .  A
C1988      C1989   1.415       .  A
C1989      C1991   1.407       .  A
C1989      C1990   1.413       .  A
C1990      C1998   1.412       .  A
C1991      C2000   1.398       .  A
C1991      C1992   1.404       .  A
C1992      C1993   1.397       .  A
C1992      H2003   1.084       .  S
C1993      C1994   1.402       .  A
C1993      H2004   1.084       .  S
C1994      C1995   1.403       .  A
C1995      C1996   1.406       .  A
C1995      H2005   1.084       .  S
C1996      C1997   1.410       .  A
C1997      H2006   1.084       .  S
C1998      C1999   1.412       .  A
C1998      H2007   1.080       .  S
C1999      C2000   1.413       .  A
C2000      H2008   1.085       .  S
C2009      C2010   1.398       .  A
C2009      C2014   1.403       .  A
C2009      H2025   1.084       .  S
C2010      C2011   1.403       .  A
C2010      H2026   1.084       .  S
C2011      C2021   1.401       .  A
C2011      C2012   1.411       .  A
C2012      C2018   1.412       .  A
C2012      C2013   1.411       .  A
C2013      C2015   1.411       .  A
C2013      C2014   1.412       .  A
C2014      C2022   1.402       .  A
C2015      C2024   1.402       .  A
C2015      C2016   1.404       .  A
C2016      C2017   1.399       .  A
C2016      H2027   1.084       .  S
C2017      C2018   1.404       .  A
C2017      H2028   1.084       .  S
C2018      C2019   1.403       .  A
C2019      C2020   1.407       .  A
C2019      H2029   1.084       .  S
C2020      C2021   1.406       .  A
C2021      H2030   1.084       .  S
C2022      C2023   1.406       .  A
C2022      H2031   1.084       .  S
C2023      C2024   1.407       .  A
C2024      H2032   1.084       .  S
C2033      C2034   1.400   1_554  A
C2033      C2038   1.403       .  A
C2033      H2049   1.084       .  S
C2034      C2035   1.404       .  A
C2034      H2050   1.083       .  S
C2035      C2045   1.404       .  A
C2035      C2036   1.410       .  A
C2036      C2042   1.412   1_655  A
C2036      C2037   1.415   1_556  A
C2037      C2039   1.410   1_655  A
C2037      C2038   1.411       .  A
C2038      C2046   1.405       .  A
C2039      C2048   1.406       .  A
C2039      C2040   1.405   1_554  A
C2040      C2041   1.401       .  A
C2040      H2051   1.084   1_556  S
C2041      C2042   1.404       .  A
C2041      H2052   1.084       .  S
C2042      C2043   1.408       .  A
C2043      C2044   1.408   1_455  A
C2043      H2053   1.084       .  S
C2044      C2045   1.409       .  A
C2045      H2054   1.084       .  S
C2046      C2047   1.408       .  A
C2046      H2055   1.083       .  S
C2047      C2048   1.413   1_655  A
C2048      H2056   1.083       .  S
C2057      C2058   1.401       .  A
C2057      C2062   1.405       .  A
C2057      H2073   1.084       .  S
C2058      C2059   1.405       .  A
C2058      H2074   1.084       .  S
C2059      C2069   1.406       .  A
C2059      C2060   1.410       .  A
C2060      C2066   1.412       .  A
C2060      C2061   1.414       .  A
C2061      C2063   1.408       .  A
C2061      C2062   1.411       .  A
C2062      C2070   1.407       .  A
C2063      C2072   1.400       .  A
C2063      C2064   1.403       .  A
C2064      C2065   1.397       .  A
C2064      H2075   1.084       .  S
C2065      C2066   1.402       .  A
C2065      H2076   1.084       .  S
C2066      C2067   1.403       .  A
C2067      C2068   1.405       .  A
C2067      H2077   1.084       .  S
C2068      C2069   1.409       .  A
C2069      H2078   1.084       .  S
C2070      C2071   1.413       .  A
C2070      H2079   1.082       .  S
C2071      C2072   1.412       .  A
C2072      H2080   1.082       .  S
C2081      C2082   1.402       .  A
C2081      C2086   1.406       .  A
C2081      H2097   1.083       .  S
C2082      C2083   1.405       .  A
C2082      H2098   1.084       .  S
C2083      C2093   1.406       .  A
C2083      C2084   1.408       .  A
C2084      C2090   1.411       .  A
C2084      C2085   1.416       .  A
C2085      C2087   1.407       .  A
C2085      C2086   1.409       .  A
C2086      C2094   1.410       .  A
C2087      C2096   1.403       .  A
C2087      C2088   1.404       .  A
C2088      C2089   1.398       .  A
C2088      H2099   1.084       .  S
C2089      C2090   1.403       .  A
C2089      H2100   1.084       .  S
C2090      C2091   1.405       .  A
C2091      C2092   1.412       .  A
C2091      H2101   1.077       .  S
C2092      C2093   1.414       .  A
C2093      H2102   1.084       .  S
C2094      C2095   1.416       .  A
C2094      H2103   1.078       .  S
C2095      C2096   1.417       .  A
C2096      H2104   1.077       .  S
C2105      C2106   1.402       .  A
C2105      C2110   1.405       .  A
C2105      H2121   1.084       .  S
C2106      C2107   1.405       .  A
C2106      H2122   1.083       .  S
C2107      C2117   1.410       .  A
C2107      C2108   1.412       .  A
C2108      C2114   1.408       .  A
C2108      C2109   1.413       .  A
C2109      C2111   1.413       .  A
C2109      C2110   1.410       .  A
C2110      C2118   1.406       .  A
C2111      C2120   1.402       .  A
C2111      C2112   1.402       .  A
C2112      C2113   1.397       .  A
C2112      H2123   1.083       .  S
C2113      C2114   1.403       .  A
C2113      H2124   1.084       .  S
C2114      C2115   1.397       .  A
C2115      C2116   1.411       .  A
C2115      H2125   1.084       .  S
C2116      C2117   1.413       .  A
C2117      H2126   1.080       .  S
C2118      C2119   1.408       .  A
C2118      H2127   1.084       .  S
C2119      C2120   1.405       .  A
C2120      H2128   1.084       .  S
C2129      C2130   1.397       .  A
C2129      C2134   1.403       .  A
C2129      H2145   1.084       .  S
C2130      C2131   1.403       .  A
C2130      H2146   1.084       .  S
C2131      C2141   1.399       .  A
C2131      C2132   1.410       .  A
C2132      C2138   1.412       .  A
C2132      C2133   1.414       .  A
C2133      C2135   1.413       .  A
C2133      C2134   1.410       .  A
C2134      C2142   1.399       .  A
C2135      C2144   1.411       .  A
C2135      C2136   1.405       .  A
C2136      C2137   1.403       .  A
C2136      H2147   1.083       .  S
C2137      C2138   1.405       .  A
C2137      H2148   1.083       .  S
C2138      C2139   1.410       .  A
C2139      C2140   1.407       .  A
C2139      H2149   1.084       .  S
C2140      C2141   1.411       .  A
C2141      H2150   1.084       .  S
C2142      C2143   1.410       .  A
C2142      H2151   1.084       .  S
C2143      C2144   1.408       .  A
C2144      H2152   1.084       .  S
C2153      C2154   1.401       .  A
C2153      C2158   1.405       .  A
C2153      H2169   1.084       .  S
C2154      C2155   1.404       .  A
C2154      H2170   1.083       .  S
C2155      C2165   1.408       .  A
C2155      C2156   1.413       .  A
C2156      C2162   1.410       .  A
C2156      C2157   1.415       .  A
C2157      C2159   1.411       .  A
C2157      C2158   1.409       .  A
C2158      C2166   1.405       .  A
C2159      C2168   1.406       .  A
C2159      C2160   1.404       .  A
C2160      C2161   1.400       .  A
C2160      H2171   1.084       .  S
C2161      C2162   1.404       .  A
C2161      H2172   1.084       .  S
C2162      C2163   1.404       .  A
C2163      C2164   1.410       .  A
C2163      H2173   1.084       .  S
C2164      C2165   1.407       .  A
C2165      H2174   1.084       .  S
C2166      C2167   1.413       .  A
C2166      H2175   1.082       .  S
C2167      C2168   1.410       .  A
C2168      H2176   1.081       .  S
C2177      C2178   1.399       .  A
C2177      C2182   1.403       .  A
C2177      H2193   1.083       .  S
C2178      C2179   1.404       .  A
C2178      H2194   1.084       .  S
C2179      C2189   1.403       .  A
C2179      C2180   1.408       .  A
C2180      C2186   1.414       .  A
C2180      C2181   1.420       .  A
C2181      C2183   1.410       .  A
C2181      C2182   1.413       .  A
C2182      C2190   1.408       .  A
C2183      C2192   1.412       .  A
C2183      C2184   1.407       .  A
C2184      C2185   1.406       .  A
C2184      H2195   1.083       .  S
C2185      C2186   1.406       .  A
C2185      H2196   1.083       .  S
C2186      C2187   1.417       .  A
C2187      C2188   1.411       .  A
C2187      H2197   1.084       .  S
C2188      C2189   1.412       .  A
C2189      H2198   1.083       .  S
C2190      C2191   1.407       .  A
C2190      H2199   1.084       .  S
C2191      C2192   1.414       .  A
C2192      H2200   1.083       .  S
C2201      C2202   1.401       .  A
C2201      C2206   1.405       .  A
C2201      H2217   1.084       .  S
C2202      C2203   1.405       .  A
C2202      H2218   1.084       .  S
C2203      C2213   1.408       .  A
C2203      C2204   1.409       .  A
C2204      C2210   1.410       .  A
C2204      C2205   1.417       .  A
C2205      C2207   1.409       .  A
C2205      C2206   1.411       .  A
C2206      C2214   1.409       .  A
C2207      C2216   1.404       .  A
C2207      C2208   1.404       .  A
C2208      C2209   1.400       .  A
C2208      H2219   1.084       .  S
C2209      C2210   1.404       .  A
C2209      H2220   1.084       .  S
C2210      C2211   1.407       .  A
C2211      C2212   1.413       .  A
C2211      H2221   1.083       .  S
C2212      C2213   1.416       .  A
C2213      H2222   1.080       .  S
C2214      C2215   1.414       .  A
C2214      H2223   1.081       .  S
C2215      C2216   1.413       .  A
C2216      H2224   1.083       .  S
C2225      C2226   1.403       .  A
C2225      C2230   1.406       .  A
C2225      H2241   1.083       .  S
C2226      C2227   1.405       .  A
C2226      H2242   1.084       .  S
C2227      C2237   1.410       .  A
C2227      C2228   1.411       .  A
C2228      C2234   1.411       .  A
C2228      C2229   1.418       .  A
C2229      C2231   1.411       .  A
C2229      C2230   1.412       .  A
C2230      C2238   1.411       .  A
C2231      C2240   1.407       .  A
C2231      C2232   1.404       .  A
C2232      C2233   1.400       .  A
C2232      H2243   1.084       .  S
C2233      C2234   1.404       .  A
C2233      H2244   1.083       .  S
C2234      C2235   1.407       .  A
C2235      C2236   1.410       .  A
C2235      H2245   1.084       .  S
C2236      C2237   1.410       .  A
C2237      H2246   1.084       .  S
C2238      C2239   1.412       .  A
C2238      H2247   1.083       .  S
C2239      C2240   1.409       .  A
C2240      H2248   1.083       .  S
C2249      C2250   1.402       .  A
C2249      C2254   1.405       .  A
C2249      H2265   1.084       .  S
C2250      C2251   1.404       .  A
C2250      H2266   1.084       .  S
C2251      C2261   1.407       .  A
C2251      C2252   1.411       .  A
C2252      C2258   1.412       .  A
C2252      C2253   1.417       .  A
C2253      C2255   1.411       .  A
C2253      C2254   1.412       .  A
C2254      C2262   1.408       .  A
C2255      C2264   1.407       .  A
C2255      C2256   1.404       .  A
C2256      C2257   1.401       .  A
C2256      H2267   1.083       .  S
C2257      C2258   1.404       .  A
C2257      H2268   1.083       .  S
C2258      C2259   1.407       .  A
C2259      C2260   1.409       .  A
C2259      H2269   1.084       .  S
C2260      C2261   1.409       .  A
C2261      H2270   1.084       .  S
C2262      C2263   1.410       .  A
C2262      H2271   1.084       .  S
C2263      C2264   1.409       .  A
C2264      H2272   1.084       .  S
C2273      C2274   1.398       .  A
C2273      C2278   1.404       .  A
C2273      H2289   1.084       .  S
C2274      C2275   1.404       .  A
C2274      H2290   1.084       .  S
C2275      C2285   1.404       .  A
C2275      C2276   1.408       .  A
C2276      C2282   1.409       .  A
C2276      C2277   1.417       .  A
C2277      C2279   1.409       .  A
C2277      C2278   1.409       .  A
C2278      C2286   1.405       .  A
C2279      C2288   1.409       .  A
C2279      C2280   1.405       .  A
C2280      C2281   1.403       .  A
C2280      H2291   1.083       .  S
C2281      C2282   1.406       .  A
C2281      H2292   1.084       .  S
C2282      C2283   1.410       .  A
C2283      C2284   1.417       .  A
C2283      H2293   1.078       .  S
C2284      C2285   1.415       .  A
C2285      H2294   1.078       .  S
C2286      C2287   1.414       .  A
C2286      H2295   1.076       .  S
C2287      C2288   1.415       .  A
C2288      H2296   1.084       .  S
C2297      C2298   1.395       .  A
C2297      C2302   1.402       .  A
C2297      H2313   1.084       .  S
C2298      C2299   1.402       .  A
C2298      H2314   1.084       .  S
C2299      C2309   1.399       .  A
C2299      C2300   1.413       .  A
C2300      C2306   1.412   1_655  A
C2300      C2301   1.412       .  A
C2301      C2303   1.414   1_655  A
C2301      C2302   1.411       .  A
C2302      C2310   1.396       .  A
C2303      C2312   1.409       .  A
C2303      C2304   1.405       .  A
C2304      C2305   1.403       .  A
C2304      H2315   1.084       .  S
C2305      C2306   1.406       .  A
C2305      H2316   1.083       .  S
C2306      C2307   1.409   1_455  A
C2307      C2308   1.407       .  A
C2307      H2317   1.084   1_655  S
C2308      C2309   1.401       .  A
C2309      H2318   1.085       .  S
C2310      C2311   1.402       .  A
C2310      H2319   1.085       .  S
C2311      C2312   1.405   1_655  A
C2312      H2320   1.084       .  S
C2321      C2322   1.398       .  A
C2321      C2326   1.403       .  A
C2321      H2337   1.084       .  S
C2322      C2323   1.403       .  A
C2322      H2338   1.084       .  S
C2323      C2333   1.401       .  A
C2323      C2324   1.410       .  A
C2324      C2330   1.410       .  A
C2324      C2325   1.412       .  A
C2325      C2327   1.411   1_655  A
C2325      C2326   1.411       .  A
C2326      C2334   1.401       .  A
C2327      C2336   1.405       .  A
C2327      C2328   1.404       .  A
C2328      C2329   1.400       .  A
C2328      H2339   1.084       .  S
C2329      C2330   1.404   1_455  A
C2329      H2340   1.084       .  S
C2330      C2331   1.404       .  A
C2331      C2332   1.410       .  A
C2331      H2341   1.082   1_655  S
C2332      C2333   1.409       .  A
C2333      H2342   1.082       .  S
C2334      C2335   1.405       .  A
C2334      H2343   1.083       .  S
C2335      C2336   1.408   1_655  A
C2336      H2344   1.084       .  S
C2345      C2346   1.409   1_556  A
C2345      C2350   1.407   1_455  A
C2345      H2361   1.083       .  S
C2346      C2347   1.408   1_455  A
C2346      H2362   1.083       .  S
C2347      C2357   1.419       .  A
C2347      C2348   1.412   1_554  A
C2348      C2354   1.411   1_556  A
C2348      C2349   1.420       .  A
C2349      C2351   1.409       .  A
C2349      C2350   1.414       .  A
C2350      C2358   1.420       .  A
C2351      C2360   1.400       .  A
C2351      C2352   1.403       .  A
C2352      C2353   1.397       .  A
C2352      H2363   1.084       .  S
C2353      C2354   1.402   1_556  A
C2353      H2364   1.084   1_556  S
C2354      C2355   1.402       .  A
C2355      C2356   1.408       .  A
C2355      H2365   1.084       .  S
C2356      C2357   1.413       .  A
C2357      H2366   1.084   1_655  S
C2358      C2359   1.412       .  A
C2358      H2367   1.084   1_655  S
C2359      C2360   1.410       .  A
C2360      H2368   1.084       .  S
C2369      C2370   1.401       .  A
C2369      C2374   1.404       .  A
C2369      H2385   1.084       .  S
C2370      C2371   1.404       .  A
C2370      H2386   1.083       .  S
C2371      C2381   1.407       .  A
C2371      C2372   1.412       .  A
C2372      C2378   1.411       .  A
C2372      C2373   1.415       .  A
C2373      C2375   1.411       .  A
C2373      C2374   1.411       .  A
C2374      C2382   1.406       .  A
C2375      C2384   1.405       .  A
C2375      C2376   1.404       .  A
C2376      C2377   1.400       .  A
C2376      H2387   1.084       .  S
C2377      C2378   1.404       .  A
C2377      H2388   1.084       .  S
C2378      C2379   1.405       .  A
C2379      C2380   1.408       .  A
C2379      H2389   1.084       .  S
C2380      C2381   1.408       .  A
C2381      H2390   1.084       .  S
C2382      C2383   1.408       .  A
C2382      H2391   1.083       .  S
C2383      C2384   1.410       .  A
C2384      H2392   1.083       .  S
C2393      C2394   1.398       .  A
C2393      C2398   1.403       .  A
C2393      H2409   1.084       .  S
C2394      C2395   1.404       .  A
C2394      H2410   1.083       .  S
C2395      C2405   1.401       .  A
C2395      C2396   1.410       .  A
C2396      C2402   1.410       .  A
C2396      C2397   1.410       .  A
C2397      C2399   1.410       .  A
C2397      C2398   1.411       .  A
C2398      C2406   1.401       .  A
C2399      C2408   1.400       .  A
C2399      C2400   1.403       .  A
C2400      C2401   1.398       .  A
C2400      H2411   1.084       .  S
C2401      C2402   1.404       .  A
C2401      H2412   1.084       .  S
C2402      C2403   1.401       .  A
C2403      C2404   1.408       .  A
C2403      H2413   1.082       .  S
C2404      C2405   1.408       .  A
C2405      H2414   1.083       .  S
C2406      C2407   1.405       .  A
C2406      H2415   1.082       .  S
C2407      C2408   1.408       .  A
C2408      H2416   1.084       .  S
C2417      C2418   1.401       .  A
C2417      C2422   1.405       .  A
C2417      H2433   1.083       .  S
C2418      C2419   1.404       .  A
C2418      H2434   1.083       .  S
C2419      C2429   1.409       .  A
C2419      C2420   1.412       .  A
C2420      C2426   1.409       .  A
C2420      C2421   1.417       .  A
C2421      C2423   1.410       .  A
C2421      C2422   1.409       .  A
C2422      C2430   1.407       .  A
C2423      C2432   1.406       .  A
C2423      C2424   1.404       .  A
C2424      C2425   1.400       .  A
C2424      H2435   1.084       .  S
C2425      C2426   1.404       .  A
C2425      H2436   1.084       .  S
C2426      C2427   1.405       .  A
C2427      C2428   1.413       .  A
C2427      H2437   1.082   1_455  S
C2428      C2429   1.409       .  A
C2429      H2438   1.083       .  S
C2430      C2431   1.413       .  A
C2430      H2439   1.083       .  S
C2431      C2432   1.414       .  A
C2432      H2440   1.081       .  S
C2441      C2442   1.400       .  A
C2441      C2446   1.405       .  A
C2441      H2457   1.084       .  S
C2442      C2443   1.404       .  A
C2442      H2458   1.084       .  S
C2443      C2453   1.406       .  A
C2443      C2444   1.412       .  A
C2444      C2450   1.410       .  A
C2444      C2445   1.414       .  A
C2445      C2447   1.410       .  A
C2445      C2446   1.409       .  A
C2446      C2454   1.404       .  A
C2447      C2456   1.404       .  A
C2447      C2448   1.404       .  A
C2448      C2449   1.399       .  A
C2448      H2459   1.084       .  S
C2449      C2450   1.403       .  A
C2449      H2460   1.084       .  S
C2450      C2451   1.402       .  A
C2451      C2452   1.409       .  A
C2451      H2461   1.083       .  S
C2452      C2453   1.408       .  A
C2453      H2462   1.083       .  S
C2454      C2455   1.414       .  A
C2454      H2463   1.082       .  S
C2455      C2456   1.412       .  A
C2456      H2464   1.082       .  S
C2465      C2466   1.396       .  A
C2465      C2470   1.403       .  A
C2465      H2481   1.084       .  S
C2466      C2467   1.402       .  A
C2466      H2482   1.084       .  S
C2467      C2477   1.397       .  A
C2467      C2468   1.412       .  A
C2468      C2474   1.412       .  A
C2468      C2469   1.410       .  A
C2469      C2471   1.414       .  A
C2469      C2470   1.410       .  A
C2470      C2478   1.396       .  A
C2471      C2480   1.407       .  A
C2471      C2472   1.404       .  A
C2472      C2473   1.401       .  A
C2472      H2483   1.083       .  S
C2473      C2474   1.404       .  A
C2473      H2484   1.083       .  S
C2474      C2475   1.404       .  A
C2475      C2476   1.403       .  A
C2475      H2485   1.084       .  S
C2476      C2477   1.404       .  A
C2477      H2486   1.085       .  S
C2478      C2479   1.405       .  A
C2478      H2487   1.085       .  S
C2479      C2480   1.403       .  A
C2480      H2488   1.084       .  S
C2489      C2490   1.402       .  A
C2489      C2494   1.404       .  A
C2489      H2505   1.084       .  S
C2490      C2491   1.405       .  A
C2490      H2506   1.084       .  S
C2491      C2501   1.406       .  A
C2491      C2492   1.410       .  A
C2492      C2498   1.413       .  A
C2492      C2493   1.415       .  A
C2493      C2495   1.409       .  A
C2493      C2494   1.413       .  A
C2494      C2502   1.409       .  A
C2495      C2504   1.402       .  A
C2495      C2496   1.404       .  A
C2496      C2497   1.399       .  A
C2496      H2507   1.084       .  S
C2497      C2498   1.403       .  A
C2497      H2508   1.083       .  S
C2498      C2499   1.406       .  A
C2499      C2500   1.405       .  A
C2499      H2509   1.083       .  S
C2500      C2501   1.412       .  A
C2501      H2510   1.083       .  S
C2502      C2503   1.409       .  A
C2502      H2511   1.083       .  S
C2503      C2504   1.409       .  A
C2504      H2512   1.083       .  S
C2513      C2514   1.400       .  A
C2513      C2518   1.405       .  A
C2513      H2529   1.084       .  S
C2514      C2515   1.403       .  A
C2514      H2530   1.083       .  S
C2515      C2525   1.409       .  A
C2515      C2516   1.413       .  A
C2516      C2522   1.409       .  A
C2516      C2517   1.417       .  A
C2517      C2519   1.413       .  A
C2517      C2518   1.408       .  A
C2518      C2526   1.404       .  A
C2519      C2528   1.412       .  A
C2519      C2520   1.405       .  A
C2520      C2521   1.403       .  A
C2520      H2531   1.083       .  S
C2521      C2522   1.406       .  A
C2521      H2532   1.083       .  S
C2522      C2523   1.408       .  A
C2523      C2524   1.413       .  A
C2523      H2533   1.083       .  S
C2524      C2525   1.407       .  A
C2525      H2534   1.084       .  S
C2526      C2527   1.414       .  A
C2526      H2535   1.082       .  S
C2527      C2528   1.411       .  A
C2528      H2536   1.082       .  S
C2537      C2538   1.401       .  A
C2537      C2542   1.405       .  A
C2537      H2553   1.084       .  S
C2538      C2539   1.404       .  A
C2538      H2554   1.084       .  S
C2539      C2549   1.407       .  A
C2539      C2540   1.412       .  A
C2540      C2546   1.410       .  A
C2540      C2541   1.415       .  A
C2541      C2543   1.411       .  A
C2541      C2542   1.408       .  A
C2542      C2550   1.404       .  A
C2543      C2552   1.407       .  A
C2543      C2544   1.404       .  A
C2544      C2545   1.399       .  A
C2544      H2555   1.083       .  S
C2545      C2546   1.403       .  A
C2545      H2556   1.084       .  S
C2546      C2547   1.404       .  A
C2547      C2548   1.406       .  A
C2547      H2557   1.084       .  S
C2548      C2549   1.409       .  A
C2549      H2558   1.084       .  S
C2550      C2551   1.415       .  A
C2550      H2559   1.083       .  S
C2551      C2552   1.412       .  A
C2552      H2560   1.081       .  S
C2561      C2562   1.399       .  A
C2561      C2566   1.405       .  A
C2561      H2577   1.084       .  S
C2562      C2563   1.403       .  A
C2562      H2578   1.084       .  S
C2563      C2573   1.404       .  A
C2563      C2564   1.412       .  A
C2564      C2570   1.410       .  A
C2564      C2565   1.412       .  A
C2565      C2567   1.410       .  A
C2565      C2566   1.409       .  A
C2566      C2574   1.403       .  A
C2567      C2576   1.402       .  A
C2567      C2568   1.404       .  A
C2568      C2569   1.398       .  A
C2568      H2579   1.084       .  S
C2569      C2570   1.403       .  A
C2569      H2580   1.084       .  S
C2570      C2571   1.400       .  A
C2571      C2572   1.407       .  A
C2571      H2581   1.084       .  S
C2572      C2573   1.405       .  A
C2573      H2582   1.084       .  S
C2574      C2575   1.413       .  A
C2574      H2583   1.081       .  S
C2575      C2576   1.410       .  A
C2576      H2584   1.080       .  S
C2585      C2586   1.403       .  A
C2585      C2590   1.405       .  A
C2585      H2601   1.083       .  S
C2586      C2587   1.405       .  A
C2586      H2602   1.083       .  S
C2587      C2597   1.411       .  A
C2587      C2588   1.412       .  A
C2588      C2594   1.409       .  A
C2588      C2589   1.419       .  A
C2589      C2591   1.410       .  A
C2589      C2590   1.409       .  A
C2590      C2598   1.409       .  A
C2591      C2600   1.409       .  A
C2591      C2592   1.405       .  A
C2592      C2593   1.401       .  A
C2592      H2603   1.084       .  S
C2593      C2594   1.405       .  A
C2593      H2604   1.084       .  S
C2594      C2595   1.407       .  A
C2595      C2596   1.415       .  A
C2595      H2605   1.082       .  S
C2596      C2597   1.411       .  A
C2597      H2606   1.082       .  S
C2598      C2599   1.415       .  A
C2598      H2607   1.084       .  S
C2599      C2600   1.416       .  A
C2600      H2608   1.079       .  S
C2609      C2610   1.403       .  A
C2609      C2614   1.405       .  A
C2609      H2625   1.083       .  S
C2610      C2611   1.405       .  A
C2610      H2626   1.083       .  S
C2611      C2621   1.412       .  A
C2611      C2612   1.412       .  A
C2612      C2618   1.408       .  A
C2612      C2613   1.417       .  A
C2613      C2615   1.412       .  A
C2613      C2614   1.410       .  A
C2614      C2622   1.409       .  A
C2615      C2624   1.406       .  A
C2615      C2616   1.403       .  A
C2616      C2617   1.399       .  A
C2616      H2627   1.083       .  S
C2617      C2618   1.404       .  A
C2617      H2628   1.084       .  S
C2618      C2619   1.402       .  A
C2619      C2620   1.414       .  A
C2619      H2629   1.083       .  S
C2620      C2621   1.414       .  A
C2621      H2630   1.081       .  S
C2622      C2623   1.411       .  A
C2622      H2631   1.083       .  S
C2623      C2624   1.407       .  A
C2624      H2632   1.084       .  S
C2633      C2634   1.399       .  A
C2633      C2638   1.404       .  A
C2633      H2649   1.084       .  S
C2634      C2635   1.404       .  A
C2634      H2650   1.084       .  S
C2635      C2645   1.404       .  A
C2635      C2636   1.411       .  A
C2636      C2642   1.409       .  A
C2636      C2637   1.411       .  A
C2637      C2639   1.413       .  A
C2637      C2638   1.410       .  A
C2638      C2646   1.400       .  A
C2639      C2648   1.404       .  A
C2639      C2640   1.403       .  A
C2640      C2641   1.399       .  A
C2640      H2651   1.084       .  S
C2641      C2642   1.404       .  A
C2641      H2652   1.083       .  S
C2642      C2643   1.401       .  A
C2643      C2644   1.411       .  A
C2643      H2653   1.082       .  S
C2644      C2645   1.409       .  A
C2645      H2654   1.082       .  S
C2646      C2647   1.408       .  A
C2646      H2655   1.084       .  S
C2647      C2648   1.405       .  A
C2648      H2656   1.084       .  S
C2657      C2658   1.396       .  A
C2657      C2662   1.403       .  A
C2657      H2673   1.084       .  S
C2658      C2659   1.403       .  A
C2658      H2674   1.084       .  S
C2659      C2669   1.400       .  A
C2659      C2660   1.410       .  A
C2660      C2666   1.413       .  A
C2660      C2661   1.417       .  A
C2661      C2663   1.413       .  A
C2661      C2662   1.410       .  A
C2662      C2670   1.400       .  A
C2663      C2672   1.416       .  A
C2663      C2664   1.406       .  A
C2664      C2665   1.406       .  A
C2664      H2675   1.083       .  S
C2665      C2666   1.406       .  A
C2665      H2676   1.083       .  S
C2666      C2667   1.416       .  A
C2667      C2668   1.410       .  A
C2667      H2677   1.084       .  S
C2668      C2669   1.409       .  A
C2669      H2678   1.084       .  S
C2670      C2671   1.410       .  A
C2670      H2679   1.084       .  S
C2671      C2672   1.410       .  A
C2672      H2680   1.084       .  S
C2681      C2682   1.405       .  A
C2681      C2686   1.406       .  A
C2681      H2697   1.083       .  S
C2682      C2683   1.406       .  A
C2682      H2698   1.083       .  S
C2683      C2693   1.415       .  A
C2683      C2684   1.411       .  A
C2684      C2690   1.409       .  A
C2684      C2685   1.419       .  A
C2685      C2687   1.410       .  A
C2685      C2686   1.412       .  A
C2686      C2694   1.414       .  A
C2687      C2696   1.405       .  A
C2687      C2688   1.404       .  A
C2688      C2689   1.399       .  A
C2688      H2699   1.084       .  S
C2689      C2690   1.404       .  A
C2689      H2700   1.084       .  S
C2690      C2691   1.403       .  A
C2691      C2692   1.413       .  A
C2691      H2701   1.084       .  S
C2692      C2693   1.416       .  A
C2693      H2702   1.080       .  S
C2694      C2695   1.411       .  A
C2694      H2703   1.083       .  S
C2695      C2696   1.411       .  A
C2696      H2704   1.083       .  S
C2705      C2706   1.400   1_554  A
C2705      C2710   1.404       .  A
C2705      H2721   1.084       .  S
C2706      C2707   1.404       .  A
C2706      H2722   1.084       .  S
C2707      C2717   1.405       .  A
C2707      C2708   1.411   1_565  A
C2708      C2714   1.411       .  A
C2708      C2709   1.415   1_556  A
C2709      C2711   1.411       .  A
C2709      C2710   1.411   1_545  A
C2710      C2718   1.406       .  A
C2711      C2720   1.406       .  A
C2711      C2712   1.404       .  A
C2712      C2713   1.400   1_554  A
C2712      H2723   1.084       .  S
C2713      C2714   1.404       .  A
C2713      H2724   1.084       .  S
C2714      C2715   1.406       .  A
C2715      C2716   1.409   1_545  A
C2715      H2725   1.083       .  S
C2716      C2717   1.409       .  A
C2717      H2726   1.084       .  S
C2718      C2719   1.410   1_565  A
C2718      H2727   1.084       .  S
C2719      C2720   1.409       .  A
C2720      H2728   1.083       .  S
C2729      C2730   1.401       .  A
C2729      C2734   1.404       .  A
C2729      H2745   1.083       .  S
C2730      C2731   1.405       .  A
C2730      H2746   1.083       .  S
C2731      C2741   1.407       .  A
C2731      C2732   1.410       .  A
C2732      C2738   1.409       .  A
C2732      C2733   1.416       .  A
C2733      C2735   1.412       .  A
C2733      C2734   1.412       .  A
C2734      C2742   1.407       .  A
C2735      C2744   1.407       .  A
C2735      C2736   1.404       .  A
C2736      C2737   1.401       .  A
C2736      H2747   1.083       .  S
C2737      C2738   1.405       .  A
C2737      H2748   1.084       .  S
C2738      C2739   1.406       .  A
C2739      C2740   1.413       .  A
C2739      H2749   1.084       .  S
C2740      C2741   1.415       .  A
C2741      H2750   1.078       .  S
C2742      C2743   1.406       .  A
C2742      H2751   1.084       .  S
C2743      C2744   1.408       .  A
C2744      H2752   1.084       .  S
C2753      C2754   1.403       .  A
C2753      C2758   1.406       .  A
C2753      H2769   1.083       .  S
C2754      C2755   1.405       .  A
C2754      H2770   1.084       .  S
C2755      C2765   1.412       .  A
C2755      C2756   1.412       .  A
C2756      C2762   1.409       .  A
C2756      C2757   1.419       .  A
C2757      C2759   1.413       .  A
C2757      C2758   1.410       .  A
C2758      C2766   1.409       .  A
C2759      C2768   1.411       .  A
C2759      C2760   1.404       .  A
C2760      C2761   1.401       .  A
C2760      H2771   1.083       .  S
C2761      C2762   1.405       .  A
C2761      H2772   1.083       .  S
C2762      C2763   1.407       .  A
C2763      C2764   1.414       .  A
C2763      H2773   1.082       .  S
C2764      C2765   1.413       .  A
C2765      H2774   1.082       .  S
C2766      C2767   1.413       .  A
C2766      H2775   1.084       .  S
C2767      C2768   1.407       .  A
C2768      H2776   1.084       .  S
C2777      C2778   1.398       .  A
C2777      C2782   1.403       .  A
C2777      H2793   1.084       .  S
C2778      C2779   1.403       .  A
C2778      H2794   1.084       .  S
C2779      C2789   1.404       .  A
C2779      C2780   1.410       .  A
C2780      C2786   1.411       .  A
C2780      C2781   1.417       .  A
C2781      C2783   1.412       .  A
C2781      C2782   1.410       .  A
C2782      C2790   1.402       .  A
C2783      C2792   1.412       .  A
C2783      C2784   1.405       .  A
C2784      C2785   1.404       .  A
C2784      H2795   1.083       .  S
C2785      C2786   1.406       .  A
C2785      H2796   1.083       .  S
C2786      C2787   1.411       .  A
C2787      C2788   1.412       .  A
C2787      H2797   1.083       .  S
C2788      C2789   1.410       .  A
C2789      H2798   1.083       .  S
C2790      C2791   1.407       .  A
C2790      H2799   1.084       .  S
C2791      C2792   1.411       .  A
C2792      H2800   1.084       .  S
C2801      C2802   1.404       .  A
C2801      C2806   1.406       .  A
C2801      H2817   1.083       .  S
C2802      C2803   1.405       .  A
C2802      H2818   1.083       .  S
C2803      C2813   1.412       .  A
C2803      C2804   1.413       .  A
C2804      C2810   1.411       .  A
C2804      C2805   1.417       .  A
C2805      C2807   1.411       .  A
C2805      C2806   1.412       .  A
C2806      C2814   1.412       .  A
C2807      C2816   1.405       .  A
C2807      C2808   1.404       .  A
C2808      C2809   1.399       .  A
C2808      H2819   1.084       .  S
C2809      C2810   1.403       .  A
C2809      H2820   1.084       .  S
C2810      C2811   1.403       .  A
C2811      C2812   1.405       .  A
C2811      H2821   1.084       .  S
C2812      C2813   1.408       .  A
C2813      H2822   1.084       .  S
C2814      C2815   1.410       .  A
C2814      H2823   1.084       .  S
C2815      C2816   1.408       .  A
C2816      H2824   1.084       .  S
C2825      C2826   1.403       .  A
C2825      C2830   1.404       .  A
C2825      H2841   1.083       .  S
C2826      C2827   1.406       .  A
C2826      H2842   1.083       .  S
C2827      C2837   1.409       .  A
C2827      C2828   1.409       .  A
C2828      C2834   1.411       .  A
C2828      C2829   1.418       .  A
C2829      C2831   1.409       .  A
C2829      C2830   1.414       .  A
C2830      C2838   1.412       .  A
C2831      C2840   1.403       .  A
C2831      C2832   1.404       .  A
C2832      C2833   1.399       .  A
C2832      H2843   1.084       .  S
C2833      C2834   1.404       .  A
C2833      H2844   1.084       .  S
C2834      C2835   1.406       .  A
C2835      C2836   1.413       .  A
C2835      H2845   1.083       .  S
C2836      C2837   1.417       .  A
C2837      H2846   1.081       .  S
C2838      C2839   1.407       .  A
C2838      H2847   1.084       .  S
C2839      C2840   1.411       .  A
C2840      H2848   1.084       .  S
C2849      C2850   1.400       .  A
C2849      C2854   1.404       .  A
C2849      H2865   1.084       .  S
C2850      C2851   1.404       .  A
C2850      H2866   1.084       .  S
C2851      C2861   1.404       .  A
C2851      C2852   1.411       .  A
C2852      C2858   1.412       .  A
C2852      C2853   1.414       .  A
C2853      C2855   1.411       .  A
C2853      C2854   1.411       .  A
C2854      C2862   1.404       .  A
C2855      C2864   1.406       .  A
C2855      C2856   1.404       .  A
C2856      C2857   1.400       .  A
C2856      H2867   1.083       .  S
C2857      C2858   1.404       .  A
C2857      H2868   1.083       .  S
C2858      C2859   1.406       .  A
C2859      C2860   1.407       .  A
C2859      H2869   1.084       .  S
C2860      C2861   1.408       .  A
C2861      H2870   1.084       .  S
C2862      C2863   1.410       .  A
C2862      H2871   1.084       .  S
C2863      C2864   1.407       .  A
C2864      H2872   1.083       .  S
C2873      C2874   1.395       .  A
C2873      C2878   1.402       .  A
C2873      H2889   1.084       .  S
C2874      C2875   1.402       .  A
C2874      H2890   1.084       .  S
C2875      C2885   1.398       .  A
C2875      C2876   1.410       .  A
C2876      C2882   1.410       .  A
C2876      C2877   1.414       .  A
C2877      C2879   1.411       .  A
C2877      C2878   1.408       .  A
C2878      C2886   1.397       .  A
C2879      C2888   1.412       .  A
C2879      C2880   1.406       .  A
C2880      C2881   1.403       .  A
C2880      H2891   1.083       .  S
C2881      C2882   1.406       .  A
C2881      H2892   1.084       .  S
C2882      C2883   1.410       .  A
C2883      C2884   1.416       .  A
C2883      H2893   1.080       .  S
C2884      C2885   1.409       .  A
C2885      H2894   1.084       .  S
C2886      C2887   1.410       .  A
C2886      H2895   1.083       .  S
C2887      C2888   1.415       .  A
C2888      H2896   1.081       .  S
C2897      C2898   1.399       .  A
C2897      C2902   1.404       .  A
C2897      H2913   1.084       .  S
C2898      C2899   1.403       .  A
C2898      H2914   1.084       .  S
C2899      C2909   1.406       .  A
C2899      C2900   1.411       .  A
C2900      C2906   1.410       .  A
C2900      C2901   1.417       .  A
C2901      C2903   1.413       .  A
C2901      C2902   1.410       .  A
C2902      C2910   1.404       .  A
C2903      C2912   1.412       .  A
C2903      C2904   1.405       .  A
C2904      C2905   1.403       .  A
C2904      H2915   1.083       .  S
C2905      C2906   1.406       .  A
C2905      H2916   1.083       .  S
C2906      C2907   1.410       .  A
C2907      C2908   1.413       .  A
C2907      H2917   1.083       .  S
C2908      C2909   1.408       .  A
C2909      H2918   1.083       .  S
C2910      C2911   1.411       .  A
C2910      H2919   1.083       .  S
C2911      C2912   1.410       .  A
C2912      H2920   1.084       .  S
C2921      C2922   1.402       .  A
C2921      C2926   1.405       .  A
C2921      H2937   1.084       .  S
C2922      C2923   1.405       .  A
C2922      H2938   1.083       .  S
C2923      C2933   1.410       .  A
C2923      C2924   1.411       .  A
C2924      C2930   1.411       .  A
C2924      C2925   1.418       .  A
C2925      C2927   1.411       .  A
C2925      C2926   1.411       .  A
C2926      C2934   1.409       .  A
C2927      C2936   1.407       .  A
C2927      C2928   1.404       .  A
C2928      C2929   1.400       .  A
C2928      H2939   1.084       .  S
C2929      C2930   1.404       .  A
C2929      H2940   1.084       .  S
C2930      C2931   1.407       .  A
C2931      C2932   1.410       .  A
C2931      H2941   1.083       .  S
C2932      C2933   1.412       .  A
C2933      H2942   1.083       .  S
C2934      C2935   1.412       .  A
C2934      H2943   1.083       .  S
C2935      C2936   1.410       .  A
C2936      H2944   1.083       .  S
C2945      C2946   1.403       .  A
C2945      C2950   1.405       .  A
C2945      H2961   1.083       .  S
C2946      C2947   1.405       .  A
C2946      H2962   1.083       .  S
C2947      C2957   1.412       .  A
C2947      C2948   1.411       .  A
C2948      C2954   1.409       .  A
C2948      C2949   1.418       .  A
C2949      C2951   1.409       .  A
C2949      C2950   1.411       .  A
C2950      C2958   1.412       .  A
C2951      C2960   1.405       .  A
C2951      C2952   1.404       .  A
C2952      C2953   1.400       .  A
C2952      H2963   1.084       .  S
C2953      C2954   1.404       .  A
C2953      H2964   1.084       .  S
C2954      C2955   1.404       .  A
C2955      C2956   1.414       .  A
C2955      H2965   1.084       .  S
C2956      C2957   1.415       .  A
C2957      H2966   1.079       .  S
C2958      C2959   1.415       .  A
C2958      H2967   1.079       .  S
C2959      C2960   1.414       .  A
C2960      H2968   1.084       .  S
C2969      C2970   1.396       .  A
C2969      C2974   1.403       .  A
C2969      H2985   1.084       .  S
C2970      C2971   1.402       .  A
C2970      H2986   1.084       .  S
C2971      C2981   1.398       .  A
C2971      C2972   1.411       .  A
C2972      C2978   1.413   1_565  A
C2972      C2973   1.413       .  A
C2973      C2975   1.413   1_565  A
C2973      C2974   1.411       .  A
C2974      C2982   1.399       .  A
C2975      C2984   1.410       .  A
C2975      C2976   1.405       .  A
C2976      C2977   1.403       .  A
C2976      H2987   1.083       .  S
C2977      C2978   1.405       .  A
C2977      H2988   1.083       .  S
C2978      C2979   1.410       .  A
C2979      C2980   1.406   1_545  A
C2979      H2989   1.084       .  S
C2980      C2981   1.405       .  A
C2981      H2990   1.085       .  S
C2982      C2983   1.406       .  A
C2982      H2991   1.085       .  S
C2983      C2984   1.406   1_565  A
C2984      H2992   1.084       .  S
C2993      C2994   1.402       .  A
C2993      C2998   1.404       .  A
C2993      H3009   1.083       .  S
C2994      C2995   1.404       .  A
C2994      H3010   1.083       .  S
C2995      C3005   1.407       .  A
C2995      C2996   1.413   1_545  A
C2996      C3002   1.411       .  A
C2996      C2997   1.411       .  A
C2997      C2999   1.411       .  A
C2997      C2998   1.413   1_565  A
C2998      C3006   1.408       .  A
C2999      C3008   1.398       .  A
C2999      C3000   1.403       .  A
C3000      C3001   1.396       .  A
C3000      H3011   1.084       .  S
C3001      C3002   1.402       .  A
C3001      H3012   1.084       .  S
C3002      C3003   1.398       .  A
C3003      C3004   1.404       .  A
C3003      H3013   1.085       .  S
C3004      C3005   1.405   1_565  A
C3005      H3014   1.084       .  S
C3006      C3007   1.404   1_545  A
C3006      H3015   1.084       .  S
C3007      C3008   1.405       .  A
C3008      H3016   1.085       .  S
C3017      C3018   1.400   1_556  A
C3017      C3022   1.404       .  A
C3017      H3033   1.084       .  S
C3018      C3019   1.404       .  A
C3018      H3034   1.083       .  S
C3019      C3029   1.406       .  A
C3019      C3020   1.411       .  A
C3020      C3026   1.410   1_565  A
C3020      C3021   1.415   1_554  A
C3021      C3023   1.412   1_565  A
C3021      C3022   1.410       .  A
C3022      C3030   1.404       .  A
C3023      C3032   1.406       .  A
C3023      C3024   1.404   1_556  A
C3024      C3025   1.400       .  A
C3024      H3035   1.084   1_554  S
C3025      C3026   1.404       .  A
C3025      H3036   1.084       .  S
C3026      C3027   1.405       .  A
C3027      C3028   1.410   1_545  A
C3027      H3037   1.083       .  S
C3028      C3029   1.410       .  A
C3029      H3038   1.083       .  S
C3030      C3031   1.410       .  A
C3030      H3039   1.083       .  S
C3031      C3032   1.408   1_565  A
C3032      H3040   1.083       .  S
C3041      C3042   1.406       .  A
C3041      C3046   1.406       .  A
C3041      H3057   1.083       .  S
C3042      C3043   1.406       .  A
C3042      H3058   1.083       .  S
C3043      C3053   1.414       .  A
C3043      C3044   1.412       .  A
C3044      C3050   1.411       .  A
C3044      C3045   1.417       .  A
C3045      C3047   1.412       .  A
C3045      C3046   1.413       .  A
C3046      C3054   1.414       .  A
C3047      C3056   1.402       .  A
C3047      C3048   1.403       .  A
C3048      C3049   1.398       .  A
C3048      H3059   1.084       .  S
C3049      C3050   1.403       .  A
C3049      H3060   1.084       .  S
C3050      C3051   1.402       .  A
C3051      C3052   1.403       .  A
C3051      H3061   1.078       .  S
C3052      C3053   1.412       .  A
C3053      H3062   1.084       .  S
C3054      C3055   1.410       .  A
C3054      H3063   1.084       .  S
C3055      C3056   1.403       .  A
C3056      H3064   1.083       .  S
C3065      C3066   1.398       .  A
C3065      C3070   1.402       .  A
C3065      H3081   1.084       .  S
C3066      C3067   1.404       .  A
C3066      H3082   1.084       .  S
C3067      C3077   1.400       .  A
C3067      C3068   1.408       .  A
C3068      C3074   1.411       .  A
C3068      C3069   1.412       .  A
C3069      C3071   1.410       .  A
C3069      C3070   1.412       .  A
C3070      C3078   1.403       .  A
C3071      C3080   1.402       .  A
C3071      C3072   1.404       .  A
C3072      C3073   1.400       .  A
C3072      H3083   1.084       .  S
C3073      C3074   1.404       .  A
C3073      H3084   1.084       .  S
C3074      C3075   1.405       .  A
C3075      C3076   1.410       .  A
C3075      H3085   1.081       .  S
C3076      C3077   1.411       .  A
C3077      H3086   1.082       .  S
C3078      C3079   1.405       .  A
C3078      H3087   1.083       .  S
C3079      C3080   1.409       .  A
C3080      H3088   1.084       .  S
C3089      C3090   1.402       .  A
C3089      C3094   1.405       .  A
C3089      H3105   1.083       .  S
C3090      C3091   1.405       .  A
C3090      H3106   1.083       .  S
C3091      C3101   1.409       .  A
C3091      C3092   1.410       .  A
C3092      C3098   1.409       .  A
C3092      C3093   1.418       .  A
C3093      C3095   1.410       .  A
C3093      C3094   1.412       .  A
C3094      C3102   1.410       .  A
C3095      C3104   1.405       .  A
C3095      C3096   1.404       .  A
C3096      C3097   1.400       .  A
C3096      H3107   1.084       .  S
C3097      C3098   1.404       .  A
C3097      H3108   1.084       .  S
C3098      C3099   1.406       .  A
C3099      C3100   1.415       .  A
C3099      H3109   1.082       .  S
C3100      C3101   1.415       .  A
C3101      H3110   1.082       .  S
C3102      C3103   1.410       .  A
C3102      H3111   1.083       .  S
C3103      C3104   1.411       .  A
C3104      H3112   1.083       .  S
C3113      C3114   1.398       .  A
C3113      C3118   1.403       .  A
C3113      H3129   1.084       .  S
C3114      C3115   1.403       .  A
C3114      H3130   1.084       .  S
C3115      C3125   1.402       .  A
C3115      C3116   1.411       .  A
C3116      C3122   1.411       .  A
C3116      C3117   1.413       .  A
C3117      C3119   1.412       .  A
C3117      C3118   1.410       .  A
C3118      C3126   1.402       .  A
C3119      C3128   1.406       .  A
C3119      C3120   1.404       .  A
C3120      C3121   1.400       .  A
C3120      H3131   1.083       .  S
C3121      C3122   1.404       .  A
C3121      H3132   1.083       .  S
C3122      C3123   1.405       .  A
C3123      C3124   1.408       .  A
C3123      H3133   1.084       .  S
C3124      C3125   1.407       .  A
C3125      H3134   1.083       .  S
C3126      C3127   1.408       .  A
C3126      H3135   1.084       .  S
C3127      C3128   1.406       .  A
C3128      H3136   1.084       .  S
C3137      C3138   1.399       .  A
C3137      C3142   1.403       .  A
C3137      H3153   1.084       .  S
C3138      C3139   1.403       .  A
C3138      H3154   1.084       .  S
C3139      C3149   1.402       .  A
C3139      C3140   1.413       .  A
C3140      C3146   1.412       .  A
C3140      C3141   1.409       .  A
C3141      C3143   1.411       .  A
C3141      C3142   1.413       .  A
C3142      C3150   1.402       .  A
C3143      C3152   1.398       .  A
C3143      C3144   1.403       .  A
C3144      C3145   1.397       .  A
C3144      H3155   1.084       .  S
C3145      C3146   1.403       .  A
C3145      H3156   1.084       .  S
C3146      C3147   1.399       .  A
C3147      C3148   1.402       .  A
C3147      H3157   1.085       .  S
C3148      C3149   1.401       .  A
C3149      H3158   1.085       .  S
C3150      C3151   1.401       .  A
C3150      H3159   1.085       .  S
C3151      C3152   1.403       .  A
C3152      H3160   1.085       .  S
C3161      C3162   1.401       .  A
C3161      C3166   1.404       .  A
C3161      H3177   1.083       .  S
C3162      C3163   1.404       .  A
C3162      H3178   1.083       .  S
C3163      C3173   1.407       .  A
C3163      C3164   1.412       .  A
C3164      C3170   1.411       .  A
C3164      C3165   1.416       .  A
C3165      C3167   1.411       .  A
C3165      C3166   1.412       .  A
C3166      C3174   1.407       .  A
C3167      C3176   1.406       .  A
C3167      C3168   1.404       .  A
C3168      C3169   1.400       .  A
C3168      H3179   1.084       .  S
C3169      C3170   1.404       .  A
C3169      H3180   1.084       .  S
C3170      C3171   1.405       .  A
C3171      C3172   1.408       .  A
C3171      H3181   1.084       .  S
C3172      C3173   1.407       .  A
C3173      H3182   1.084       .  S
C3174      C3175   1.408       .  A
C3174      H3183   1.084       .  S
C3175      C3176   1.408       .  A
C3176      H3184   1.084       .  S
C3185      C3186   1.397       .  A
C3185      C3190   1.403       .  A
C3185      H3201   1.084       .  S
C3186      C3187   1.404       .  A
C3186      H3202   1.084       .  S
C3187      C3197   1.400       .  A
C3187      C3188   1.407       .  A
C3188      C3194   1.412       .  A
C3188      C3189   1.414       .  A
C3189      C3191   1.407       .  A
C3189      C3190   1.412       .  A
C3190      C3198   1.404       .  A
C3191      C3200   1.404       .  A
C3191      C3192   1.405       .  A
C3192      C3193   1.401       .  A
C3192      H3203   1.084       .  S
C3193      C3194   1.404       .  A
C3193      H3204   1.083       .  S
C3194      C3195   1.409       .  A
C3195      C3196   1.411       .  A
C3195      H3205   1.081       .  S
C3196      C3197   1.415       .  A
C3197      H3206   1.080       .  S
C3198      C3199   1.410       .  A
C3198      H3207   1.079       .  S
C3199      C3200   1.414       .  A
C3200      H3208   1.084       .  S
C3209      C3210   1.401       .  A
C3209      C3214   1.404       .  A
C3209      H3225   1.084       .  S
C3210      C3211   1.405       .  A
C3210      H3226   1.084       .  S
C3211      C3221   1.407       .  A
C3211      C3212   1.409       .  A
C3212      C3218   1.410       .  A
C3212      C3213   1.416       .  A
C3213      C3215   1.411       .  A
C3213      C3214   1.412       .  A
C3214      C3222   1.408       .  A
C3215      C3224   1.405       .  A
C3215      C3216   1.404       .  A
C3216      C3217   1.400       .  A
C3216      H3227   1.083       .  S
C3217      C3218   1.404       .  A
C3217      H3228   1.084       .  S
C3218      C3219   1.405       .  A
C3219      C3220   1.413       .  A
C3219      H3229   1.083       .  S
C3220      C3221   1.415       .  A
C3221      H3230   1.081       .  S
C3222      C3223   1.408       .  A
C3222      H3231   1.084       .  S
C3223      C3224   1.408       .  A
C3224      H3232   1.084       .  S
C3233      C3234   1.399       .  A
C3233      C3238   1.403       .  A
C3233      H3249   1.083       .  S
C3234      C3235   1.404       .  A
C3234      H3250   1.084       .  S
C3235      C3245   1.402       .  A
C3235      C3236   1.409       .  A
C3236      C3242   1.412       .  A
C3236      C3237   1.413       .  A
C3237      C3239   1.408       .  A
C3237      C3238   1.412       .  A
C3238      C3246   1.406       .  A
C3239      C3248   1.401       .  A
C3239      C3240   1.404       .  A
C3240      C3241   1.399       .  A
C3240      H3251   1.084       .  S
C3241      C3242   1.403       .  A
C3241      H3252   1.084       .  S
C3242      C3243   1.405       .  A
C3243      C3244   1.407       .  A
C3243      H3253   1.083       .  S
C3244      C3245   1.410       .  A
C3245      H3254   1.083       .  S
C3246      C3247   1.407       .  A
C3246      H3255   1.082       .  S
C3247      C3248   1.412       .  A
C3248      H3256   1.082       .  S
C3257      C3258   1.402       .  A
C3257      C3262   1.405       .  A
C3257      H3273   1.083       .  S
C3258      C3259   1.404       .  A
C3258      H3274   1.083       .  S
C3259      C3269   1.411       .  A
C3259      C3260   1.412       .  A
C3260      C3266   1.410       .  A
C3260      C3261   1.417       .  A
C3261      C3263   1.410       .  A
C3261      C3262   1.409       .  A
C3262      C3270   1.408       .  A
C3263      C3272   1.406       .  A
C3263      C3264   1.404       .  A
C3264      C3265   1.400       .  A
C3264      H3275   1.084       .  S
C3265      C3266   1.404       .  A
C3265      H3276   1.084       .  S
C3266      C3267   1.405       .  A
C3267      C3268   1.412       .  A
C3267      H3277   1.083       .  S
C3268      C3269   1.408       .  A
C3269      H3278   1.083       .  S
C3270      C3271   1.414       .  A
C3270      H3279   1.082       .  S
C3271      C3272   1.414       .  A
C3272      H3280   1.081       .  S
C3281      C3282   1.399       .  A
C3281      C3286   1.404       .  A
C3281      H3297   1.084       .  S
C3282      C3283   1.404       .  A
C3282      H3298   1.084       .  S
C3283      C3293   1.403       .  A
C3283      C3284   1.410       .  A
C3284      C3290   1.412       .  A
C3284      C3285   1.415       .  A
C3285      C3287   1.411       .  A
C3285      C3286   1.411       .  A
C3286      C3294   1.404       .  A
C3287      C3296   1.407       .  A
C3287      C3288   1.404       .  A
C3288      C3289   1.401       .  A
C3288      H3299   1.083       .  S
C3289      C3290   1.404       .  A
C3289      H3300   1.083       .  S
C3290      C3291   1.408       .  A
C3291      C3292   1.407       .  A
C3291      H3301   1.084       .  S
C3292      C3293   1.411       .  A
C3293      H3302   1.084       .  S
C3294      C3295   1.407       .  A
C3294      H3303   1.084       .  S
C3295      C3296   1.408       .  A
C3296      H3304   1.084       .  S
C3305      C3306   1.396       .  A
C3305      C3310   1.402       .  A
C3305      H3321   1.084       .  S
C3306      C3307   1.402       .  A
C3306      H3322   1.084       .  S
C3307      C3317   1.396       .  A
C3307      C3308   1.410       .  A
C3308      C3314   1.413       .  A
C3308      C3309   1.410       .  A
C3309      C3311   1.412       .  A
C3309      C3310   1.412       .  A
C3310      C3318   1.397       .  A
C3311      C3320   1.404       .  A
C3311      C3312   1.404       .  A
C3312      C3313   1.401       .  A
C3312      H3323   1.084       .  S
C3313      C3314   1.404       .  A
C3313      H3324   1.083       .  S
C3314      C3315   1.406       .  A
C3315      C3316   1.404       .  A
C3315      H3325   1.084       .  S
C3316      C3317   1.405       .  A
C3317      H3326   1.085       .  S
C3318      C3319   1.403       .  A
C3318      H3327   1.085       .  S
C3319      C3320   1.405       .  A
C3320      H3328   1.084       .  S
C3329      C3330   1.402       .  A
C3329      C3334   1.405       .  A
C3329      H3345   1.084       .  S
C3330      C3331   1.404       .  A
C3330      H3346   1.084       .  S
C3331      C3341   1.409       .  A
C3331      C3332   1.412       .  A
C3332      C3338   1.412       .  A
C3332      C3333   1.419       .  A
C3333      C3335   1.412       .  A
C3333      C3334   1.412       .  A
C3334      C3342   1.409       .  A
C3335      C3344   1.411       .  A
C3335      C3336   1.405       .  A
C3336      C3337   1.403       .  A
C3336      H3347   1.083       .  S
C3337      C3338   1.405       .  A
C3337      H3348   1.083       .  S
C3338      C3339   1.410       .  A
C3339      C3340   1.408       .  A
C3339      H3349   1.084       .  S
C3340      C3341   1.407       .  A
C3341      H3350   1.084       .  S
C3342      C3343   1.408       .  A
C3342      H3351   1.084       .  S
C3343      C3344   1.409       .  A
C3344      H3352   1.084       .  S
C3353      C3354   1.397       .  A
C3353      C3358   1.403       .  A
C3353      H3369   1.084       .  S
C3354      C3355   1.403       .  A
C3354      H3370   1.084       .  S
C3355      C3365   1.401       .  A
C3355      C3356   1.410       .  A
C3356      C3362   1.410       .  A
C3356      C3357   1.414       .  A
C3357      C3359   1.411       .  A
C3357      C3358   1.409       .  A
C3358      C3366   1.400       .  A
C3359      C3368   1.407       .  A
C3359      C3360   1.404       .  A
C3360      C3361   1.401       .  A
C3360      H3371   1.084       .  S
C3361      C3362   1.405       .  A
C3361      H3372   1.084       .  S
C3362      C3363   1.407       .  A
C3363      C3364   1.415       .  A
C3363      H3373   1.079       .  S
C3364      C3365   1.411       .  A
C3365      H3374   1.084       .  S
C3366      C3367   1.412       .  A
C3366      H3375   1.084       .  S
C3367      C3368   1.413       .  A
C3368      H3376   1.079       .  S
