geometry optimzed in LAMMPS
_audit_creation_date              2020-11-30 
_audit_creation_method            'lammps2cif' 
_symmetry_space_group_name_H-M    'P1' 
_symmetry_Int_Tables_number       1 
_symmetry_cell_setting            triclinic 
loop_ 
_symmetry_equiv_pos_as_xyz 
  x,y,z 
_cell_length_a                    17.23238376 
_cell_length_b                    16.905286814685944 
_cell_length_c                    50.110767302808995 
_cell_angle_alpha                 89.9524865278177 
_cell_angle_beta                  90.12974332496563 
_cell_angle_gamma                 92.38122289813263 
loop_ 
_atom_site_label 
_atom_site_type_symbol 
_atom_site_fract_x 
_atom_site_fract_y 
_atom_site_fract_z 
_atom_site_charge 
N1          N  0.32574952  0.97555337  0.26304078    -0.02500
C2          C  0.30223492  0.93013054  0.24154624     0.00100
C3          C  0.28023320  0.85449927  0.24972567    -0.22700
C4          C  0.28461411  0.85357216  0.27686972    -0.23000
C5          C  0.30902248  0.92872899  0.28488569     0.00000
H6          H  0.25517859  0.80723012  0.23749205     0.13800
H7          H  0.26287930  0.80562188  0.28949182     0.13900
N8          N  0.37019957  0.04935476  0.26240452    -0.02500
C9          C  0.38480261  0.09985254  0.28343173     0.00100
C10         C  0.39923097  0.17613256  0.27423641    -0.22700
C11         C  0.40016998  0.17259884  0.24708456    -0.23000
C12         C  0.38647277  0.09437122  0.24018788     0.00000
H13         H  0.41780624  0.22733772  0.28591580     0.13800
H14         H  0.41912092  0.22043409  0.23395682     0.13900
N15         N  0.89166646  0.51151273  0.26265394    -0.02500
C16         C  0.93858972  0.49750882  0.24131267     0.00100
C17         C  0.01548043  0.50090093  0.24901433    -0.22700
C18         C  0.01661600  0.50989358  0.27607901    -0.23000
C19         C  0.94014986  0.51136101  0.28431612     0.00000
H20         H  0.06504168  0.48802521  0.23675528     0.13800
H21         H  0.06732154  0.50368220  0.28856138     0.13900
N22         N  0.81394239  0.53890969  0.26196071    -0.02500
C23         C  0.76540853  0.54762431  0.28322121     0.00100
C24         C  0.68917894  0.54790531  0.27481727    -0.22700
C25         C  0.69038893  0.54643496  0.24753770    -0.23000
C26         C  0.76738001  0.54556469  0.24003008     0.00000
H27         H  0.63904075  0.55934740  0.28697350     0.13800
H28         H  0.64118413  0.55630712  0.23466103     0.13900
C29         C  0.08489635  0.03057233  0.07500589     0.43500
N30         N  0.01573000  0.99414463  0.04111873     0.02400
C31         C  0.78743944  0.21995108  0.45986573    -0.05500
H32         H  0.72950112  0.22937410  0.06808252     0.07900
C33         C  0.65512005  0.94878312  0.06305547    -0.05900
Co34       Co  0.95332387  0.13133294  0.01122594     0.74200
N35         N  0.81389613  0.18454717  0.04061108    -0.25000
Co36       Co  0.75096332  0.11982523  0.01149550     0.74100
C37         C  0.62721927  0.01946016  0.07599916     0.43600
N38         N  0.81709899  0.85774072  0.04102780     0.02000
N39         N  0.69229742  0.05399676  0.04110417     0.02100
N40         N  0.91883585  0.22812796  0.46122125    -0.45900
H41         H  0.06499310  0.16236795  0.06703341     0.07800
N42         N  0.89053496  0.19013388  0.04009542     0.02400
N43         N  0.68991814  0.05288925  0.48270466     0.02100
C44         C  0.61828816  0.01746494  0.44932216     0.43700
N45         N  0.89376037  0.86335555  0.04146098    -0.24500
C46         C  0.06006727  0.09712141  0.46222795    -0.05400
N47         N  0.05800433  0.96694609  0.06098780    -0.45600
N48         N  0.64611916  0.08066230  0.46332287    -0.45800
C49         C  0.09202644  0.02640248  0.45048550     0.43500
N50         N  0.88975725  0.18709343  0.48168288     0.02400
N51         N  0.89322573  0.86187576  0.48268876    -0.23900
N52         N  0.01385667  0.07218064  0.04102801    -0.25000
N53         N  0.81646874  0.85626472  0.48305266     0.02000
H54         H  0.97820966  0.81286763  0.45637258     0.07900
H55         H  0.63934981  0.88545622  0.45660778     0.07900
N56         N  0.81299624  0.18200992  0.48156477    -0.25100
N57         N  0.69429965  0.97599363  0.04149872    -0.24700
N58         N  0.01670110  0.99189739  0.48286194     0.02400
C59         C  0.86006862  0.25621211  0.07478706     0.43800
C60         C  0.91903160  0.82229535  0.06251375    -0.05900
N61         N  0.69207760  0.97490425  0.48252177    -0.24700
H62         H  0.64677153  0.88740473  0.06880406     0.07900
N63         N  0.92038873  0.23284991  0.06006156    -0.45900
H64         H  0.97906290  0.81550437  0.06808531     0.07900
C65         C  0.84770725  0.78481641  0.44976866     0.43600
C66         C  0.05554377  0.10062027  0.06191855    -0.05400
Co67       Co  0.95605446  0.92652037  0.01201695     0.73800
N68         N  0.78773396  0.81333004  0.06059783    -0.45600
C69         C  0.85779609  0.25044980  0.44656076     0.43900
N70         N  0.06257736  0.96350540  0.46427501    -0.45600
Co71       Co  0.75371630  0.91491916  0.01197178     0.73900
C72         C  0.64892576  0.94708620  0.46189194    -0.05900
C73         C  0.78925912  0.22403984  0.06208971    -0.05500
N74         N  0.01473022  0.06988155  0.48230701    -0.25000
N75         N  0.65222289  0.08234139  0.06125232    -0.45800
H76         H  0.72736637  0.22593495  0.45425255     0.07900
C77         C  0.91823034  0.81963403  0.46192212    -0.05900
Cl78       Cl  0.85354089  0.02309829  0.01158956    -0.48900
C79         C  0.84852712  0.78898125  0.07493495     0.43600
H80         H  0.07120278  0.15861071  0.45709995     0.07800
N81         N  0.78697872  0.81034022  0.46382167    -0.45600
C82         C  0.77744614  0.60620476  0.35031258     0.30800
C83         C  0.75458601  0.60730528  0.37716369    -0.35600
C84         C  0.79489963  0.66229493  0.39356292     0.16800
C85         C  0.85462649  0.71185380  0.38432314     0.22600
C86         C  0.87734604  0.71085940  0.35738905    -0.33700
C87         C  0.83629873  0.65647694  0.34088002     0.16700
O88         O  0.74595137  0.56111547  0.33142543    -0.25700
C89         C  0.78589549  0.58152622  0.30960847     0.06500
C90         C  0.84192890  0.64185502  0.31416290    -0.30600
O91         O  0.88308512  0.75983865  0.40305497    -0.22400
C92         C  0.84023209  0.74142520  0.42441639    -0.02400
C93         C  0.78438707  0.68131699  0.41968677    -0.16800
H94         H  0.70775991  0.56900892  0.38461537     0.21200
H95         H  0.92286210  0.75051222  0.34977153     0.19500
H96         H  0.88042219  0.67091959  0.29985107     0.19500
H97         H  0.74162600  0.65630611  0.43339509     0.15300
C98         C  0.77625006  0.60775814  0.17334430     0.30800
C99         C  0.74555441  0.62012912  0.14784847    -0.35600
C100        C  0.79087412  0.66876822  0.13086850     0.16800
C101        C  0.86241906  0.70172826  0.13817300     0.22600
C102        C  0.89280928  0.68996570  0.16387741    -0.33700
C103        C  0.84646433  0.64259996  0.18113037     0.16700
O104        O  0.74158319  0.56741941  0.19268833    -0.25700
C105        C  0.78993436  0.57596461  0.21331539     0.06500
C106        C  0.85544128  0.62406485  0.20745215    -0.30600
O107        O  0.89383401  0.74678590  0.11918358    -0.22400
C108        C  0.84102176  0.74321339  0.09974030    -0.02400
C109        C  0.77579036  0.69584514  0.10593500    -0.16800
H110        H  0.68932818  0.59529471  0.14192570     0.21200
H111        H  0.94756194  0.71745315  0.17018880     0.19500
H112        H  0.90172230  0.64408066  0.22073992     0.19500
H113        H  0.72427095  0.68425569  0.09395880     0.15300
C114        C  0.86620330  0.41443636  0.34174225     0.30800
C115        C  0.81630389  0.36336354  0.35656983    -0.35600
C116        C  0.84176179  0.34428940  0.38237934     0.16800
C117        C  0.91191048  0.37263109  0.39265382     0.22600
C118        C  0.96052370  0.42546005  0.37816095    -0.33700
C119        C  0.93447009  0.44541748  0.35260552     0.16700
O120        O  0.85727403  0.43519746  0.31652072    -0.25700
C121        C  0.91965362  0.48197737  0.31141106     0.06500
C122        C  0.96941841  0.49044994  0.33327315    -0.30600
O123        O  0.92673233  0.34332794  0.41642902    -0.22400
C124        C  0.86462236  0.29673086  0.42175642    -0.02400
C125        C  0.80953745  0.29525467  0.40137694    -0.16800
H126        H  0.76264733  0.33869797  0.34834565     0.21200
H127        H  0.01557027  0.44782101  0.38597786     0.19500
H128        H  0.02518661  0.52200814  0.33435386     0.19500
H129        H  0.75509589  0.26117200  0.40038951     0.15300
C130        C  0.93214239  0.42918689  0.17525802     0.30800
C131        C  0.96216944  0.41948187  0.14956054    -0.35600
C132        C  0.91823296  0.36973904  0.13246882     0.16800
C133        C  0.84874792  0.33274953  0.13991356     0.22600
C134        C  0.81909895  0.34168904  0.16590366    -0.33700
C135        C  0.86378315  0.39101228  0.18321478     0.16700
O136        O  0.96502262  0.47206290  0.19436833    -0.25700
C137        C  0.91729423  0.46238088  0.21504713     0.06500
C138        C  0.85380097  0.41095498  0.20946090    -0.30600
O139        O  0.81752650  0.28896712  0.12046691    -0.22400
C140        C  0.86844072  0.29756022  0.10056287    -0.02400
C141        C  0.93226672  0.34680037  0.10697963    -0.16800
H142        H  0.01635708  0.44813194  0.14342425     0.21200
H143        H  0.76557810  0.31193086  0.17221145     0.19500
H144        H  0.80789627  0.39059216  0.22279294     0.19500
H145        H  0.98178733  0.36307424  0.09465103     0.15300
C146        C  0.46749909  0.02443801  0.34246771     0.30800
C147        C  0.50901820  0.97240861  0.35854193    -0.35600
C148        C  0.52726006  0.99886200  0.38455504     0.16800
C149        C  0.50671140  0.07176067  0.39397363     0.22600
C150        C  0.46363782  0.12273649  0.37818990    -0.33700
C151        C  0.44501061  0.09603537  0.35236490     0.16700
O152        O  0.44815868  0.01422744  0.31703526    -0.25700
C153        C  0.41130865  0.07963334  0.31078790     0.06500
C154        C  0.40813745  0.13240936  0.33208611    -0.30600
O155        O  0.53477589  0.08730908  0.41803419    -0.22400
C156        C  0.57299225  0.02307456  0.42439014    -0.02400
C157        C  0.56971846  0.96573742  0.40441865    -0.16800
H158        H  0.52754320  0.91630844  0.35109066     0.21200
H159        H  0.44764907  0.18022159  0.38527541     0.19500
H160        H  0.38390567  0.19045244  0.33234161     0.19500
H161        H  0.59765492  0.90963797  0.40409346     0.15300
C162        C  0.53774130  0.99972307  0.13900772     0.30800
C163        C  0.52200943  0.96700661  0.16446805    -0.35600
C164        C  0.47558388  0.01167770  0.18147175     0.16800
C165        C  0.44597412  0.08258032  0.17358582     0.22600
C166        C  0.46168342  0.11509132  0.14835598    -0.33700
C167        C  0.50900393  0.07156217  0.13170498     0.16700
O168        O  0.58224300  0.97037762  0.12022509    -0.25700
C169        C  0.58243604  0.02492502  0.10094289     0.06500
C170        C  0.53815088  0.08915202  0.10710558    -0.30600
O171        O  0.40812741  0.11725662  0.19274771    -0.22400
C172        C  0.41252128  0.06846719  0.21348036    -0.02400
C173        C  0.45467892  0.00167974  0.20773994    -0.16800
H174        H  0.54609681  0.91204445  0.17082702     0.21200
H175        H  0.44058253  0.17181577  0.14247123     0.19500
H176        H  0.52927531  0.14147958  0.09523450     0.19500
H177        H  0.47053138  0.95496918  0.22121030     0.15300
C178        C  0.20834326  0.97050283  0.39685554     0.30800
C179        C  0.24903147  0.91750229  0.38115100    -0.35600
C180        C  0.26618513  0.94224555  0.35500486     0.16800
C181        C  0.24449762  0.01386225  0.34481605     0.22600
C182        C  0.20656908  0.06833040  0.36090715    -0.33700
C183        C  0.18960201  0.04376333  0.38716747     0.16700
O184        O  0.17847395  0.95560055  0.42066481    -0.25700
C185        C  0.14098744  0.02060250  0.42653478     0.06500
C186        C  0.14686267  0.07794269  0.40660730    -0.30600
O187        O  0.25865358  0.02074487  0.31892699    -0.22400
C188        C  0.29207847  0.95350755  0.31263875    -0.02400
C189        C  0.29772019  0.90257023  0.33439281    -0.16800
H190        H  0.26276242  0.85943700  0.38833496     0.21200
H191        H  0.18814201  0.12414024  0.35312503     0.19500
H192        H  0.11900155  0.13405248  0.40577072     0.19500
H193        H  0.31843705  0.84304401  0.33462124     0.15300
C194        C  0.23270038  0.01723283  0.18222799     0.30800
C195        C  0.19409437  0.07194657  0.16618012    -0.35600
C196        C  0.17670603  0.04770726  0.13980191     0.16800
C197        C  0.19584789  0.97468359  0.13008484     0.22600
C198        C  0.23609809  0.92135159  0.14578135    -0.33700
C199        C  0.25338357  0.94551470  0.17192648     0.16700
O200        O  0.24904911  0.02388759  0.20806034    -0.25700
C201        C  0.28185407  0.95585372  0.21408621     0.06500
C202        C  0.28551655  0.90521722  0.19227919    -0.30600
O203        O  0.16779191  0.96036148  0.10599659    -0.22400
C204        C  0.13077130  0.02531137  0.09980153    -0.02400
C205        C  0.13498340  0.08228854  0.11995106    -0.16800
H206        H  0.17619111  0.12786910  0.17397841     0.21200
H207        H  0.25003551  0.86355935  0.13847872     0.19500
H208        H  0.30618222  0.84568250  0.19179574     0.19500
H209        H  0.10747350  0.13860245  0.12050164     0.15300
N210        N  0.32574953  0.97555377  0.76304077    -0.02500
C211        C  0.30223473  0.93013107  0.74154623     0.00100
C212        C  0.28023251  0.85449982  0.74972563    -0.22700
C213        C  0.28461340  0.85357268  0.77686973    -0.23000
C214        C  0.30902221  0.92872951  0.78488567     0.00000
H215        H  0.25517784  0.80723112  0.73749211     0.13800
H216        H  0.26287850  0.80562289  0.78949172     0.13900
N217        N  0.37019988  0.04935495  0.76240450    -0.02500
C218        C  0.38480305  0.09985273  0.78343170     0.00100
C219        C  0.39923181  0.17613268  0.77423638    -0.22700
C220        C  0.40017098  0.17259893  0.74708449    -0.23000
C221        C  0.38647339  0.09437125  0.74018786     0.00000
H222        H  0.41780728  0.22733782  0.78591574     0.13800
H223        H  0.41912206  0.22043373  0.73395685     0.13900
N224        N  0.89166611  0.51151319  0.76265401    -0.02500
C225        C  0.93858959  0.49750949  0.74131275     0.00100
C226        C  0.01548001  0.50090227  0.74901449    -0.22700
C227        C  0.01661572  0.50989500  0.77607912    -0.23000
C228        C  0.94014943  0.51136187  0.78431620     0.00000
H229        H  0.06504234  0.48802663  0.73675523     0.13800
H230        H  0.06732098  0.50368405  0.78856147     0.13900
N231        N  0.81394196  0.53890995  0.76196072    -0.02500
C232        C  0.76540798  0.54762462  0.78322121     0.00100
C233        C  0.68917871  0.54790548  0.77481719    -0.22700
C234        C  0.69038843  0.54643506  0.74753766    -0.23000
C235        C  0.76737966  0.54556479  0.74003008     0.00000
H236        H  0.63903941  0.55934780  0.78697365     0.13800
H237        H  0.64118414  0.55630702  0.73466105     0.13900
C238        C  0.08489663  0.03057259  0.57500587     0.43500
N239        N  0.01573009  0.99414477  0.54111878     0.02400
C240        C  0.78743946  0.21995054  0.95986562    -0.05500
H241        H  0.72950216  0.22937348  0.56808270     0.07900
C242        C  0.65511988  0.94878308  0.56305533    -0.05900
Co243      Co  0.95332403  0.13133309  0.51122597     0.74200
N244        N  0.81389636  0.18454715  0.54061118    -0.25000
Co245      Co  0.75096348  0.11982545  0.51149555     0.74100
C246        C  0.62721899  0.01945995  0.57599904     0.43600
N247        N  0.81709895  0.85774084  0.54102774     0.02000
N248        N  0.69229747  0.05399682  0.54110416     0.02100
N249        N  0.91883570  0.22812759  0.96122118    -0.45900
H250        H  0.06499347  0.16236805  0.56703330     0.07800
N251        N  0.89053514  0.19013391  0.54009550     0.02400
N252        N  0.68991791  0.05288886  0.98270466     0.02100
C253        C  0.61828785  0.01746436  0.94932219     0.43700
N254        N  0.89376032  0.86335567  0.54146099    -0.24500
C255        C  0.06006725  0.09712146  0.96222799    -0.05400
N256        N  0.05800450  0.96694629  0.56098784    -0.45600
N257        N  0.64611891  0.08066180  0.96332285    -0.45800
C258        C  0.09202648  0.02640258  0.95048551     0.43500
N259        N  0.88975708  0.18709315  0.98168281     0.02400
N260        N  0.89322553  0.86187560  0.98268877    -0.23900
N261        N  0.01385683  0.07218077  0.54102801    -0.25000
N262        N  0.81646852  0.85626446  0.98305272     0.02000
H263        H  0.97820973  0.81286749  0.95637253     0.07900
H264        H  0.63934946  0.88545560  0.95660790     0.07900
N265        N  0.81299603  0.18200955  0.98156468    -0.25100
N266        N  0.69429967  0.97599368  0.54149865    -0.24700
N267        N  0.01670096  0.99189731  0.98286189     0.02400
C268        C  0.86006889  0.25621153  0.57478729     0.43800
C269        C  0.91903145  0.82229551  0.56251379    -0.05900
N270        N  0.69207732  0.97490385  0.98252182    -0.24700
H271        H  0.64677126  0.88740442  0.56880387     0.07900
N272        N  0.92038895  0.23284962  0.56006172    -0.45900
H273        H  0.97906245  0.81550459  0.56808540     0.07900
C274        C  0.84770697  0.78481606  0.94976873     0.43600
C275        C  0.05554407  0.10062053  0.56191851    -0.05400
Co276      Co  0.95605457  0.92652048  0.51201698     0.73800
N277        N  0.78773376  0.81333025  0.56059777    -0.45600
C278        C  0.85779594  0.25044928  0.94656065     0.43900
N279        N  0.06257731  0.96350541  0.96427497    -0.45600
Co280      Co  0.75371644  0.91491938  0.51197171     0.73900
C281        C  0.64892543  0.94708572  0.96189203    -0.05900
C282        C  0.78925912  0.22403948  0.56208993    -0.05500
N283        N  0.01473011  0.06988146  0.98230701    -0.25000
N284        N  0.65222276  0.08234130  0.56125228    -0.45800
H285        H  0.72736567  0.22593442  0.95425235     0.07900
C286        C  0.91822997  0.81963385  0.96192213    -0.05900
Cl287      Cl  0.85354105  0.02309848  0.51158957    -0.48900
C288        C  0.84852680  0.78898149  0.57493494     0.43600
H289        H  0.07120281  0.15861071  0.95710005     0.07800
N290        N  0.78697847  0.81033985  0.96382177    -0.45600
C291        C  0.77744547  0.60620499  0.85031258     0.30800
C292        C  0.75458551  0.60730556  0.87716366    -0.35600
C293        C  0.79489902  0.66229492  0.89356295     0.16800
C294        C  0.85462603  0.71185380  0.88432318     0.22600
C295        C  0.87734538  0.71085937  0.85738912    -0.33700
C296        C  0.83629815  0.65647719  0.84088005     0.16700
O297        O  0.74595075  0.56111575  0.83142541    -0.25700
C298        C  0.78589491  0.58152648  0.80960847     0.06500
C299        C  0.84192835  0.64185534  0.81416291    -0.30600
O300        O  0.88308472  0.75983845  0.90305503    -0.22400
C301        C  0.84023166  0.74142495  0.92441645    -0.02400
C302        C  0.78438673  0.68131698  0.91968675    -0.16800
H303        H  0.70775867  0.56900864  0.88461543     0.21200
H304        H  0.92286222  0.75051273  0.84977149     0.19500
H305        H  0.88042149  0.67091983  0.79985115     0.19500
H306        H  0.74162478  0.65630564  0.93339533     0.15300
C307        C  0.77624944  0.60775853  0.67334431     0.30800
C308        C  0.74555364  0.62012980  0.64784853    -0.35600
C309        C  0.79087338  0.66876886  0.63086856     0.16800
C310        C  0.86241846  0.70172860  0.63817302     0.22600
C311        C  0.89280891  0.68996587  0.66387741    -0.33700
C312        C  0.84646383  0.64260012  0.68113036     0.16700
O313        O  0.74158265  0.56741975  0.69268834    -0.25700
C314        C  0.78993398  0.57596471  0.71331537     0.06500
C315        C  0.85544096  0.62406487  0.70745212    -0.30600
O316        O  0.89383354  0.74678611  0.61918358    -0.22400
C317        C  0.84102124  0.74321382  0.59974033    -0.02400
C318        C  0.77578954  0.69584585  0.60593505    -0.16800
H319        H  0.68932729  0.59529557  0.64192579     0.21200
H320        H  0.94756129  0.71745289  0.67018871     0.19500
H321        H  0.90172198  0.64408051  0.72073985     0.19500
H322        H  0.72427047  0.68425668  0.59395896     0.15300
C323        C  0.86620312  0.41443646  0.84174224     0.30800
C324        C  0.81630368  0.36336339  0.85656976    -0.35600
C325        C  0.84176172  0.34428910  0.88237926     0.16800
C326        C  0.91191039  0.37263077  0.89265376     0.22600
C327        C  0.96052347  0.42545987  0.87816092    -0.33700
C328        C  0.93446989  0.44541754  0.85260553     0.16700
O329        O  0.85727374  0.43519781  0.81652074    -0.25700
C330        C  0.91965329  0.48197786  0.81141112     0.06500
C331        C  0.96941807  0.49045022  0.83327321    -0.30600
O332        O  0.92673221  0.34332752  0.91642895    -0.22400
C333        C  0.86462227  0.29673037  0.92175632    -0.02400
C334        C  0.80953734  0.29525421  0.90137683    -0.16800
H335        H  0.76264744  0.33869803  0.84834563     0.21200
H336        H  0.01557027  0.44782094  0.88597788     0.19500
H337        H  0.02518639  0.52200856  0.83435395     0.19500
H338        H  0.75509597  0.26117164  0.90038938     0.15300
C339        C  0.93214251  0.42918688  0.67525819     0.30800
C340        C  0.96216942  0.41948168  0.64956072    -0.35600
C341        C  0.91823322  0.36973866  0.63246902     0.16800
C342        C  0.84874823  0.33274899  0.63991381     0.22600
C343        C  0.81909932  0.34168868  0.66590390    -0.33700
C344        C  0.86378333  0.39101214  0.68321498     0.16700
O345        O  0.96502261  0.47206315  0.69436845    -0.25700
C346        C  0.91729423  0.46238119  0.71504726     0.06500
C347        C  0.85380113  0.41095509  0.70946106    -0.30600
O348        O  0.81752688  0.28896644  0.62046719    -0.22400
C349        C  0.86844104  0.29755960  0.60056312    -0.02400
C350        C  0.93226678  0.34679986  0.60697989    -0.16800
H351        H  0.01635749  0.44813215  0.64342434     0.21200
H352        H  0.76557825  0.31193026  0.67221176     0.19500
H353        H  0.80789628  0.39059226  0.72279316     0.19500
H354        H  0.98178800  0.36307409  0.59465108     0.15300
C355        C  0.46749912  0.02443783  0.84246769     0.30800
C356        C  0.50901792  0.97240831  0.85854193    -0.35600
C357        C  0.52725971  0.99886154  0.88455504     0.16800
C358        C  0.50671125  0.07176031  0.89397364     0.22600
C359        C  0.46363804  0.12273611  0.87818987    -0.33700
C360        C  0.44501085  0.09603526  0.85236490     0.16700
O361        O  0.44815875  0.01422739  0.81703523    -0.25700
C362        C  0.41130896  0.07963337  0.81078786     0.06500
C363        C  0.40813776  0.13240968  0.83208609    -0.30600
O364        O  0.53477576  0.08730858  0.91803420    -0.22400
C365        C  0.57299189  0.02307397  0.92439017    -0.02400
C366        C  0.56971804  0.96573665  0.90441868    -0.16800
H367        H  0.52754287  0.91630774  0.85109062     0.21200
H368        H  0.44764922  0.18022211  0.88527548     0.19500
H369        H  0.38390665  0.19045168  0.83234158     0.19500
H370        H  0.59765405  0.90963774  0.90409351     0.15300
C371        C  0.53774121  0.99972275  0.63900762     0.30800
C372        C  0.52200964  0.96700614  0.66446800    -0.35600
C373        C  0.47558408  0.01167747  0.68147170     0.16800
C374        C  0.44597421  0.08257999  0.67358577     0.22600
C375        C  0.46168330  0.11509089  0.64835591    -0.33700
C376        C  0.50900374  0.07156178  0.63170488     0.16700
O377        O  0.58224288  0.97037729  0.62022498    -0.25700
C378        C  0.58243576  0.02492470  0.60094278     0.06500
C379        C  0.53815058  0.08915154  0.60710550    -0.30600
O380        O  0.40812764  0.11725637  0.69274768    -0.22400
C381        C  0.41252171  0.06846706  0.71348034    -0.02400
C382        C  0.45467936  0.00167955  0.70773994    -0.16800
H383        H  0.54609679  0.91204481  0.67082689     0.21200
H384        H  0.44058234  0.17181530  0.64247117     0.19500
H385        H  0.52927483  0.14147946  0.59523434     0.19500
H386        H  0.47053188  0.95496931  0.72121024     0.15300
C387        C  0.20834350  0.97050334  0.89685557     0.30800
C388        C  0.24903181  0.91750293  0.88115101    -0.35600
C389        C  0.26618534  0.94224612  0.85500487     0.16800
C390        C  0.24449765  0.01386277  0.84481606     0.22600
C391        C  0.20656894  0.06833092  0.86090715    -0.33700
C392        C  0.18960200  0.04376374  0.88716749     0.16700
O393        O  0.17847426  0.95560098  0.92066483    -0.25700
C394        C  0.14098751  0.02060278  0.92653480     0.06500
C395        C  0.14686254  0.07794296  0.90660732    -0.30600
O396        O  0.25865349  0.02074540  0.81892699    -0.22400
C397        C  0.29207842  0.95350807  0.81263874    -0.02400
C398        C  0.29772025  0.90257099  0.83439281    -0.16800
H399        H  0.26276294  0.85943758  0.88833500     0.21200
H400        H  0.18814176  0.12414036  0.85312507     0.19500
H401        H  0.11900118  0.13405269  0.90577072     0.19500
H402        H  0.31843739  0.84304398  0.83462124     0.15300
C403        C  0.23270076  0.01723349  0.68222794     0.30800
C404        C  0.19409469  0.07194731  0.66618007    -0.35600
C405        C  0.17670645  0.04770788  0.63980183     0.16800
C406        C  0.19584843  0.97468427  0.63008479     0.22600
C407        C  0.23609876  0.92135212  0.64578128    -0.33700
C408        C  0.25338408  0.94551546  0.67192644     0.16700
O409        O  0.24904925  0.02388821  0.70806031    -0.25700
C410        C  0.28185419  0.95585432  0.71408619     0.06500
C411        C  0.28551693  0.90521789  0.69227916    -0.30600
O412        O  0.16779243  0.96036199  0.60599655    -0.22400
C413        C  0.13077167  0.02531184  0.59980149    -0.02400
C414        C  0.13498381  0.08228888  0.61995099    -0.16800
H415        H  0.17619145  0.12786927  0.67397830     0.21200
H416        H  0.25003605  0.86356073  0.63847876     0.19500
H417        H  0.30618253  0.84568324  0.69179572     0.19500
H418        H  0.10747347  0.13860341  0.62050159     0.15300
loop_ 
_geom_bond_atom_site_label_1 
_geom_bond_atom_site_label_2 
_geom_bond_distance 
_geom_bond_site_symmetry_2 
_ccdc_geom_bond_type 
N1            C5   1.374       .  A
N1            C2   1.374       .  A
N1            N8   1.437   1_565  S
C2            C3   1.381       .  A
C2          C201   1.488       .  S
C3            C4   1.362       .  A
C3            H6   1.082       .  S
C4            C5   1.381       .  A
C4            H7   1.083       .  S
C5          C188   1.486       .  S
N8           C12   1.371       .  A
N8            C9   1.373       .  A
C9           C10   1.382       .  A
C9          C153   1.488       .  S
C10          C11   1.362       .  A
C10          H13   1.082       .  S
C11          C12   1.378       .  A
C11          H14   1.082       .  S
C12         C172   1.485       .  S
N15          C19   1.368       .  A
N15          C16   1.369       .  A
N15          N22   1.436       .  S
C16          C17   1.378   1_655  A
C16         C137   1.483       .  S
C17          C18   1.365       .  A
C17          H20   1.083       .  S
C18          C19   1.383   1_455  A
C18          H21   1.082       .  S
C19         C121   1.484       .  S
N22          C26   1.367       .  A
N22          C23   1.368       .  A
C23          C24   1.379       .  A
C23          C89   1.478       .  S
C24          C25   1.367       .  A
C24          H27   1.082       .  S
C25          C26   1.381       .  A
C25          H28   1.083       .  S
C26         C105   1.481       .  S
C29          N47   1.350   1_545  A
C29          C66   1.461       .  S
C29         C204   1.476       .  S
N30          N47   1.326       .  A
N30          N52   1.321   1_565  A
N30         Co67   2.095   1_455  S
C31          N56   1.345       .  A
C31          C69   1.460       .  S
C31          H76   1.081       .  S
H32          C73   1.081       .  S
C33          N57   1.346       .  A
C33          C37   1.459   1_565  S
C33          H62   1.081       .  S
Co34         N52   2.097   1_655  S
Co34         N42   2.086       .  S
Co34        N283   2.098   1_654  S
Co34        N259   2.087   1_554  S
Co34        Cl78   2.458       .  S
N35          C73   1.346       .  A
N35          N42   1.320       .  A
N35         Co36   2.097       .  S
Co36         N39   2.091       .  S
Co36        N265   2.100   1_554  S
Co36        N252   2.089   1_554  S
Co36        Cl78   2.457       .  S
C37          N75   1.350       .  A
C37         C169   1.475       .  S
N38          N45   1.321       .  A
N38          N68   1.323       .  A
N38         Co71   2.080       .  S
N39          N57   1.321   1_545  A
N39          N75   1.326       .  A
N40          C69   1.348       .  A
N40          N50   1.325       .  A
H41          C66   1.081       .  S
N42          N63   1.325       .  A
N43          N61   1.320   1_545  A
N43          N48   1.326       .  A
N43        Co245   2.089       .  S
C44          N48   1.349       .  A
C44          C72   1.463   1_545  S
C44         C156   1.477       .  S
N45          C60   1.344       .  A
N45         Co67   2.093       .  S
C46          N74   1.345       .  A
C46          C49   1.462       .  S
C46          H80   1.080       .  S
C49          N70   1.349   1_545  A
C49         C185   1.474       .  S
N50          N56   1.322       .  A
N50        Co243   2.087       .  S
N51          C77   1.344       .  A
N51          N53   1.322       .  A
N51        Co276   2.103       .  S
N52          C66   1.346       .  A
N53          N81   1.325       .  A
N53        Co280   2.086       .  S
H54          C77   1.082       .  S
H55          C72   1.081       .  S
N56        Co245   2.100       .  S
N57         Co71   2.098       .  S
N58          N70   1.326       .  A
N58          N74   1.320   1_565  A
N58        Co276   2.087   1_455  S
C59          N63   1.349       .  A
C59          C73   1.460       .  S
C59         C140   1.473       .  S
C60          C79   1.458       .  S
C60          H64   1.082       .  S
N61          C72   1.346       .  A
N61        Co280   2.101       .  S
C65          N81   1.349       .  A
C65          C77   1.460       .  S
C65          C92   1.470       .  S
Co67        N260   2.103   1_554  S
Co67        N267   2.087   1_654  S
Co67        Cl78   2.455   1_565  S
N68          C79   1.347       .  A
C69         C124   1.470       .  S
Co71        N262   2.086   1_554  S
Co71        N270   2.101   1_554  S
Co71        Cl78   2.458   1_565  S
N74        Co243   2.098   1_455  S
C79         C108   1.467       .  S
C82          C87   1.380       .  A
C82          C83   1.403       .  A
C82          O88   1.318       .  A
C83          C84   1.403       .  A
C83          H94   1.080       .  S
C84          C93   1.363       .  A
C84          C85   1.380       .  A
C85          C86   1.406       .  A
C85          O91   1.321       .  A
C86          C87   1.405       .  A
C86          H95   1.081       .  S
C87          C90   1.366       .  A
O88          C89   1.331       .  A
C89          C90   1.394       .  A
C90          H96   1.082       .  S
O91          C92   1.331       .  A
C92          C93   1.390       .  A
C93          H97   1.081       .  S
C98         C103   1.379       .  A
C98          C99   1.401       .  A
C98         O104   1.315       .  A
C99         C100   1.399       .  A
C99         H110   1.081       .  S
C100        C109   1.359       .  A
C100        C101   1.380       .  A
C101        C102   1.406       .  A
C101        O107   1.321       .  A
C102        C103   1.405       .  A
C102        H111   1.081       .  S
C103        C106   1.365       .  A
O104        C105   1.330       .  A
C105        C106   1.395       .  A
C106        H112   1.081       .  S
O107        C108   1.331       .  A
C108        C109   1.388       .  A
C109        H113   1.082       .  S
C114        C119   1.379       .  A
C114        C115   1.406       .  A
C114        O120   1.322       .  A
C115        C116   1.406       .  A
C115        H126   1.079       .  S
C116        C125   1.366       .  A
C116        C117   1.380       .  A
C117        C118   1.402       .  A
C117        O123   1.318       .  A
C118        C119   1.402       .  A
C118        H127   1.079   1_655  S
C119        C122   1.358       .  A
O120        C121   1.333       .  A
C121        C122   1.394       .  A
C122        H128   1.081   1_655  S
O123        C124   1.330       .  A
C124        C125   1.392       .  A
C125        H129   1.081       .  S
C130        C135   1.379       .  A
C130        C131   1.401       .  A
C130        O136   1.315       .  A
C131        C132   1.400       .  A
C131        H142   1.079   1_655  S
C132        C141   1.360       .  A
C132        C133   1.380       .  A
C133        C134   1.411       .  A
C133        O139   1.324       .  A
C134        C135   1.409       .  A
C134        H143   1.080       .  S
C135        C138   1.371       .  A
O136        C137   1.330       .  A
C137        C138   1.397       .  A
C138        H144   1.082       .  S
O139        C140   1.334       .  A
C140        C141   1.389       .  A
C141        H145   1.081       .  S
C146        C151   1.379       .  A
C146        C147   1.408   1_545  A
C146        O152   1.326       .  A
C147        C148   1.409       .  A
C147        H158   1.080       .  S
C148        C157   1.367       .  A
C148        C149   1.380   1_565  A
C149        C150   1.403       .  A
C149        O155   1.321       .  A
C150        C151   1.403       .  A
C150        H159   1.082       .  S
C151        C154   1.358       .  A
O152        C153   1.334       .  A
C153        C154   1.394       .  A
C154        H160   1.082       .  S
O155        C156   1.331       .  A
C156        C157   1.393   1_545  A
C157        H161   1.081       .  S
C162        C167   1.379   1_565  A
C162        C163   1.412       .  A
C162        O168   1.325       .  A
C163        C164   1.411   1_565  A
C163        H174   1.081       .  S
C164        C173   1.374       .  A
C164        C165   1.379       .  A
C165        C166   1.401       .  A
C165        O171   1.314       .  A
C166        C167   1.399       .  A
C166        H175   1.080       .  S
C167        C170   1.360       .  A
O168        C169   1.335   1_565  A
C169        C170   1.388       .  A
C170        H176   1.082       .  S
O171        C172   1.330       .  A
C172        C173   1.398       .  A
C173        H177   1.082   1_545  S
C178        C183   1.380   1_565  A
C178        C179   1.403       .  A
C178        O184   1.320       .  A
C179        C180   1.403       .  A
C179        H190   1.080       .  S
C180        C189   1.359       .  A
C180        C181   1.379   1_565  A
C181        C182   1.407       .  A
C181        O187   1.325       .  A
C182        C183   1.407       .  A
C182        H191   1.080       .  S
C183        C186   1.366       .  A
O184        C185   1.331   1_565  A
C185        C186   1.392       .  A
C186        H192   1.082       .  S
O187        C188   1.334   1_545  A
C188        C189   1.394       .  A
C189        H193   1.082       .  S
C194        C199   1.379   1_545  A
C194        C195   1.411       .  A
C194        O200   1.328       .  A
C195        C196   1.412       .  A
C195        H206   1.080       .  S
C196        C205   1.371       .  A
C196        C197   1.380   1_545  A
C197        C198   1.400       .  A
C197        O203   1.318       .  A
C198        C199   1.400       .  A
C198        H207   1.080       .  S
C199        C202   1.356       .  A
O200        C201   1.337   1_545  A
C201        C202   1.392       .  A
C202        H208   1.082       .  S
O203        C204   1.329   1_565  A
C204        C205   1.396       .  A
C205        H209   1.081       .  S
N210        C214   1.374       .  A
N210        C211   1.374       .  A
N210        N217   1.437   1_565  S
C211        C212   1.381       .  A
C211        C410   1.488       .  S
C212        C213   1.362       .  A
C212        H215   1.082       .  S
C213        C214   1.381       .  A
C213        H216   1.083       .  S
C214        C397   1.486       .  S
N217        C221   1.371       .  A
N217        C218   1.373       .  A
C218        C219   1.382       .  A
C218        C362   1.488       .  S
C219        C220   1.362       .  A
C219        H222   1.082       .  S
C220        C221   1.378       .  A
C220        H223   1.082       .  S
C221        C381   1.485       .  S
N224        C228   1.368       .  A
N224        C225   1.369       .  A
N224        N231   1.436       .  S
C225        C226   1.378   1_655  A
C225        C346   1.483       .  S
C226        C227   1.365       .  A
C226        H229   1.083       .  S
C227        C228   1.383   1_455  A
C227        H230   1.082       .  S
C228        C330   1.484       .  S
N231        C235   1.367       .  A
N231        C232   1.368       .  A
C232        C233   1.379       .  A
C232        C298   1.478       .  S
C233        C234   1.367       .  A
C233        H236   1.082       .  S
C234        C235   1.381       .  A
C234        H237   1.083       .  S
C235        C314   1.481       .  S
C238        N256   1.350   1_545  A
C238        C275   1.461       .  S
C238        C413   1.476       .  S
N239        N256   1.326       .  A
N239        N261   1.321   1_565  A
N239       Co276   2.095   1_455  S
C240        N265   1.345       .  A
C240        C278   1.460       .  S
C240        H285   1.081       .  S
H241        C282   1.081       .  S
C242        N266   1.346       .  A
C242        C246   1.459   1_565  S
C242        H271   1.081       .  S
Co243       N261   2.097   1_655  S
Co243       N251   2.086       .  S
Co243      Cl287   2.458       .  S
N244        C282   1.346       .  A
N244        N251   1.320       .  A
N244       Co245   2.097       .  S
Co245       N248   2.091       .  S
Co245      Cl287   2.457       .  S
C246        N284   1.350       .  A
C246        C378   1.475       .  S
N247        N254   1.321       .  A
N247        N277   1.323       .  A
N247       Co280   2.080       .  S
N248        N266   1.321   1_545  A
N248        N284   1.326       .  A
N249        C278   1.348       .  A
N249        N259   1.325       .  A
H250        C275   1.081       .  S
N251        N272   1.325       .  A
N252        N270   1.320   1_545  A
N252        N257   1.326       .  A
C253        N257   1.349       .  A
C253        C281   1.463   1_545  S
C253        C365   1.477       .  S
N254        C269   1.344       .  A
N254       Co276   2.093       .  S
C255        N283   1.345       .  A
C255        C258   1.462       .  S
C255        H289   1.080       .  S
C258        N279   1.349   1_545  A
C258        C394   1.474       .  S
N259        N265   1.322       .  A
N260        C286   1.344       .  A
N260        N262   1.322       .  A
N261        C275   1.346       .  A
N262        N290   1.325       .  A
H263        C286   1.082       .  S
H264        C281   1.081       .  S
N266       Co280   2.098       .  S
N267        N279   1.326       .  A
N267        N283   1.320   1_565  A
C268        N272   1.349       .  A
C268        C282   1.460       .  S
C268        C349   1.473       .  S
C269        C288   1.458       .  S
C269        H273   1.082       .  S
N270        C281   1.346       .  A
C274        N290   1.349       .  A
C274        C286   1.460       .  S
C274        C301   1.470       .  S
Co276      Cl287   2.455   1_565  S
N277        C288   1.347       .  A
C278        C333   1.470       .  S
Co280      Cl287   2.458   1_565  S
C288        C317   1.467       .  S
C291        C296   1.380       .  A
C291        C292   1.403       .  A
C291        O297   1.318       .  A
C292        C293   1.403       .  A
C292        H303   1.080       .  S
C293        C302   1.363       .  A
C293        C294   1.380       .  A
C294        C295   1.406       .  A
C294        O300   1.321       .  A
C295        C296   1.405       .  A
C295        H304   1.081       .  S
C296        C299   1.366       .  A
O297        C298   1.331       .  A
C298        C299   1.394       .  A
C299        H305   1.082       .  S
O300        C301   1.331       .  A
C301        C302   1.390       .  A
C302        H306   1.081       .  S
C307        C312   1.379       .  A
C307        C308   1.401       .  A
C307        O313   1.315       .  A
C308        C309   1.399       .  A
C308        H319   1.081       .  S
C309        C318   1.359       .  A
C309        C310   1.380       .  A
C310        C311   1.406       .  A
C310        O316   1.321       .  A
C311        C312   1.405       .  A
C311        H320   1.081       .  S
C312        C315   1.365       .  A
O313        C314   1.330       .  A
C314        C315   1.395       .  A
C315        H321   1.081       .  S
O316        C317   1.331       .  A
C317        C318   1.388       .  A
C318        H322   1.082       .  S
C323        C328   1.379       .  A
C323        C324   1.406       .  A
C323        O329   1.322       .  A
C324        C325   1.406       .  A
C324        H335   1.079       .  S
C325        C334   1.366       .  A
C325        C326   1.380       .  A
C326        C327   1.402       .  A
C326        O332   1.318       .  A
C327        C328   1.402       .  A
C327        H336   1.079   1_655  S
C328        C331   1.358       .  A
O329        C330   1.333       .  A
C330        C331   1.394       .  A
C331        H337   1.081   1_655  S
O332        C333   1.330       .  A
C333        C334   1.392       .  A
C334        H338   1.081       .  S
C339        C344   1.379       .  A
C339        C340   1.401       .  A
C339        O345   1.315       .  A
C340        C341   1.400       .  A
C340        H351   1.079   1_655  S
C341        C350   1.360       .  A
C341        C342   1.380       .  A
C342        C343   1.411       .  A
C342        O348   1.324       .  A
C343        C344   1.409       .  A
C343        H352   1.080       .  S
C344        C347   1.371       .  A
O345        C346   1.330       .  A
C346        C347   1.397       .  A
C347        H353   1.082       .  S
O348        C349   1.334       .  A
C349        C350   1.389       .  A
C350        H354   1.081       .  S
C355        C360   1.379       .  A
C355        C356   1.408   1_545  A
C355        O361   1.326       .  A
C356        C357   1.409       .  A
C356        H367   1.080       .  S
C357        C366   1.367       .  A
C357        C358   1.380   1_565  A
C358        C359   1.403       .  A
C358        O364   1.321       .  A
C359        C360   1.403       .  A
C359        H368   1.082       .  S
C360        C363   1.358       .  A
O361        C362   1.334       .  A
C362        C363   1.394       .  A
C363        H369   1.082       .  S
O364        C365   1.331       .  A
C365        C366   1.393   1_545  A
C366        H370   1.081       .  S
C371        C376   1.379   1_565  A
C371        C372   1.412       .  A
C371        O377   1.325       .  A
C372        C373   1.411   1_565  A
C372        H383   1.081       .  S
C373        C382   1.374       .  A
C373        C374   1.379       .  A
C374        C375   1.401       .  A
C374        O380   1.314       .  A
C375        C376   1.399       .  A
C375        H384   1.080       .  S
C376        C379   1.360       .  A
O377        C378   1.335   1_565  A
C378        C379   1.388       .  A
C379        H385   1.082       .  S
O380        C381   1.330       .  A
C381        C382   1.398       .  A
C382        H386   1.082   1_545  S
C387        C392   1.380   1_565  A
C387        C388   1.403       .  A
C387        O393   1.320       .  A
C388        C389   1.403       .  A
C388        H399   1.080       .  S
C389        C398   1.359       .  A
C389        C390   1.379   1_565  A
C390        C391   1.407       .  A
C390        O396   1.325       .  A
C391        C392   1.407       .  A
C391        H400   1.080       .  S
C392        C395   1.366       .  A
O393        C394   1.331   1_565  A
C394        C395   1.392       .  A
C395        H401   1.082       .  S
O396        C397   1.334   1_545  A
C397        C398   1.394       .  A
C398        H402   1.082       .  S
C403        C408   1.379   1_545  A
C403        C404   1.411       .  A
C403        O409   1.328       .  A
C404        C405   1.412       .  A
C404        H415   1.080       .  S
C405        C414   1.371       .  A
C405        C406   1.380   1_545  A
C406        C407   1.400       .  A
C406        O412   1.318       .  A
C407        C408   1.400       .  A
C407        H416   1.080       .  S
C408        C411   1.356       .  A
O409        C410   1.337   1_545  A
C410        C411   1.392       .  A
C411        H417   1.082       .  S
O412        C413   1.329   1_565  A
C413        C414   1.396       .  A
C414        H418   1.081       .  S
