geometry optimzed in LAMMPS
_audit_creation_date              2020-11-30 
_audit_creation_method            'lammps2cif' 
_symmetry_space_group_name_H-M    'P1' 
_symmetry_Int_Tables_number       1 
_symmetry_cell_setting            triclinic 
loop_ 
_symmetry_equiv_pos_as_xyz 
  x,y,z 
_cell_length_a                    37.99840894 
_cell_length_b                    37.969316550080904 
_cell_length_c                    42.08372619561116 
_cell_angle_alpha                 90.3444923371712 
_cell_angle_beta                  89.74017738290475 
_cell_angle_gamma                 120.07483415189972 
loop_ 
_atom_site_label 
_atom_site_type_symbol 
_atom_site_fract_x 
_atom_site_fract_y 
_atom_site_fract_z 
_atom_site_charge 
C1          C  0.21928091  0.20749796  0.15218909     0.80000
N2          N  0.21866082  0.20616356  0.12008651    -0.78300
C3          C  0.24906262  0.23646110  0.10303975     0.82400
N4          N  0.28051352  0.26814565  0.11856159    -0.78300
C5          C  0.28117874  0.26977818  0.15085181     0.82500
N6          N  0.25051259  0.23909555  0.16745477    -0.80000
C7          C  0.21480482  0.21341835  0.41351667     0.80000
N8          N  0.24642297  0.24528702  0.39867433    -0.78300
C9          C  0.27708472  0.27597089  0.41533347     0.82400
N10         N  0.27579010  0.27457742  0.44749256    -0.78300
C11         C  0.24452585  0.24294464  0.46298890     0.82500
N12         N  0.21391347  0.21237319  0.44585047    -0.80000
C13         C  0.24211353  0.46662389  0.14965845     0.80000
N14         N  0.21169786  0.46834115  0.16513765    -0.78300
C15         C  0.18109069  0.46906882  0.14918135     0.82400
N16         N  0.18111265  0.46749189  0.11690942    -0.78300
C17         C  0.21121560  0.46515415  0.10094941     0.82500
N18         N  0.24186498  0.46506873  0.11747483    -0.80000
C19         C  0.23938942  0.46928553  0.41091053     0.80000
N20         N  0.24161556  0.46865284  0.44319210    -0.78300
C21         C  0.21397203  0.47232829  0.46162521     0.82400
N22         N  0.18383398  0.47597799  0.44754420    -0.78300
C23         C  0.18169802  0.47717284  0.41551697     0.82500
N24         N  0.20952204  0.47385207  0.39743215    -0.80000
C25         C  0.50665289  0.24660029  0.15310573     0.80000
N26         N  0.49957671  0.21124552  0.16670390    -0.78300
C27         C  0.49985819  0.18124181  0.14927152     0.82400
N28         N  0.50750097  0.18672698  0.11771829    -0.78300
C29         C  0.51469355  0.22164839  0.10326197     0.82500
N30         N  0.51392641  0.25154216  0.12114795    -0.80000
C31         C  0.50847315  0.25188114  0.41243513     0.80000
N32         N  0.50540246  0.21890360  0.39739543    -0.78300
C33         C  0.50299715  0.18719833  0.41374463     0.82400
N34         N  0.50354056  0.18865572  0.44598274    -0.78300
C35         C  0.50648983  0.22152569  0.46178584     0.82500
N36         N  0.50862293  0.25301334  0.44475959    -0.80000
O37         O  0.38827986  0.00342261  0.24334611    -0.88400
C38         C  0.09773341  0.09131164  0.32728385     1.11600
O39         O  0.43876634  0.47292107  0.28083027    -1.36200
O40         O  0.07011333  0.09332341  0.24511253    -0.89900
O41         O  0.35664306  0.43360243  0.24587556    -0.90600
O42         O  0.44260260  0.42966013  0.21454976    -0.79400
O43         O  0.47900776  0.05049334  0.24912313    -1.01500
C44         C  0.05890638  0.47844927  0.22775604     1.21700
O45         O  0.48542053  0.43504882  0.28288258    -1.36400
Mn46       Mn  0.48120676  0.47654976  0.31671029     1.82100
O47         O  0.02690687  0.47600280  0.21734568    -0.78500
O48         O  0.10451637  0.06013129  0.24733913    -0.87900
C49         C  0.05504480  0.48052190  0.34382658     1.12800
C50         C  0.09867206  0.08745842  0.23567058     1.07500
O51         O  0.43869989  0.43320708  0.34976039    -0.79400
O52         O  0.02245452  0.01232989  0.28253739    -1.33100
O53         O  0.40664202  0.39530623  0.31145792    -0.98600
C54         C  0.49280563  0.36084017  0.23869847     1.06200
Mn55       Mn  0.08030895  0.01723863  0.28326048     1.48600
O56         O  0.45788925  0.35233503  0.24921671    -0.87800
Mn57       Mn  0.38340619  0.41677204  0.28154193     1.49600
O58         O  0.38876888  0.00608376  0.31432245    -0.91700
C59         C  0.48029523  0.04410897  0.22092754     1.19400
C60         C  0.35907652  0.46880010  0.32480104     1.11400
Mn61       Mn  0.48327777  0.47489879  0.24691848     1.81000
O62         O  0.06134657  0.48052595  0.31546551    -0.96800
Mn63       Mn  0.43311065  0.02563465  0.27878986     1.49300
C64         C  0.36096827  0.46627730  0.23407033     1.08000
Mn65       Mn  0.04008236  0.43466717  0.28548461     1.49900
C66         C  0.49205123  0.36376011  0.33000132     1.10900
O67         O  0.40700467  0.39319985  0.25280429    -1.02600
O68         O  0.10446342  0.06316264  0.31830978    -0.92300
C69         C  0.41177530  0.39789467  0.22423286     1.22200
O70         O  0.06285266  0.48021414  0.25637150    -1.03000
O71         O  0.06950474  0.09605526  0.31579173    -0.90400
O72         O  0.02249305  0.39017799  0.32010277    -0.90000
O73         O  0.35604166  0.43507820  0.31655156    -0.90100
Mn74       Mn  0.02510062  0.06924462  0.28044217     1.47900
O75         O  0.02224000  0.47815489  0.35231324    -0.78500
C76         C  0.40945335  0.40021774  0.33994055     1.15200
O77         O  0.48245721  0.01337081  0.21305871    -0.77300
O78         O  0.47837550  0.01822054  0.34776919    -0.76900
Mn79       Mn  0.43437327  0.37589780  0.28342576     1.51100
O80         O  0.02362550  0.39016919  0.24956389    -0.89200
O81         O  0.47841573  0.05258342  0.30845491    -0.96800
O82         O  0.45675443  0.35503350  0.32052798    -0.91800
C83         C  0.47879894  0.04926925  0.33716830     1.13000
C84         C  0.48209370  0.08252035  0.35796701    -0.00400
C85         C  0.50026502  0.08880724  0.38807276    -0.12300
C86         C  0.50799127  0.12275788  0.40678342     0.01800
C87         C  0.49605551  0.15037985  0.39585138    -0.00500
C88         C  0.47725664  0.14346368  0.36602916    -0.12200
C89         C  0.47083969  0.11067563  0.34696800     0.01700
H90         H  0.51028955  0.06828452  0.39635486     0.14700
H91         H  0.46784043  0.16421547  0.35712390     0.14700
C92         C  0.45365679  0.10784605  0.31582981     0.36400
C93         C  0.53082881  0.12991619  0.43574646     0.36300
N94         N  0.44053990  0.10626068  0.29075579    -0.44000
N95         N  0.54962175  0.13558151  0.45870116    -0.44000
C96         C  0.50807323  0.28417680  0.39313012    -0.00400
C97         C  0.48436579  0.30109783  0.40304599    -0.12300
C98         C  0.47839418  0.32716771  0.38311602     0.01800
C99         C  0.49672693  0.33700302  0.35282568    -0.00500
C100        C  0.02194760  0.32180943  0.34690450    -0.12200
C101        C  0.02658977  0.29445820  0.36601373     0.01700
H102        H  0.46922169  0.29277576  0.42591606     0.14700
H103        H  0.03916397  0.33210413  0.32492685     0.14700
C104        C  0.05435811  0.28116338  0.35557520     0.36400
C105        C  0.45440766  0.34406622  0.39489866     0.36300
N106        N  0.07639992  0.27035632  0.34701721    -0.44000
N107        N  0.43540495  0.35733419  0.40554392    -0.44000
C108        C  0.48078088  0.07366690  0.19797766    -0.00400
C109        C  0.45675101  0.09114202  0.20516676    -0.12300
C110        C  0.46097598  0.12464432  0.18846335     0.01800
C111        C  0.49087500  0.14249119  0.16452627    -0.00500
C112        C  0.01041337  0.12183182  0.15800297    -0.12200
C113        C  0.00655446  0.08759822  0.17403573     0.01700
H114        H  0.43504928  0.07909032  0.22453491     0.14700
H115        H  0.03250817  0.13526236  0.13900571     0.14700
C116        C  0.03192343  0.07111938  0.16442028     0.36400
C117        C  0.43348574  0.13934882  0.19609607     0.36300
N118        N  0.05219563  0.05783700  0.15666069    -0.44000
N119        N  0.41091819  0.15044997  0.20224510    -0.44000
C120        C  0.49539779  0.33217658  0.21572982    -0.00400
C121        C  0.01950127  0.34400396  0.19250327    -0.12300
C122        C  0.02222693  0.31673900  0.17110527     0.01800
C123        C  0.50325743  0.27744441  0.17342253    -0.00500
C124        C  0.47865676  0.26341059  0.20080574    -0.12200
C125        C  0.47470999  0.28999047  0.22175346     0.01700
H126        H  0.03930963  0.37653027  0.18938984     0.14700
H127        H  0.46254576  0.23126069  0.20630159     0.14700
C128        C  0.45136057  0.27331130  0.25051882     0.36400
C129        C  0.05198005  0.33330588  0.14591227     0.36300
N130        N  0.43300618  0.26005255  0.27370160    -0.44000
N131        N  0.07588728  0.34683263  0.12575138    -0.44000
C132        C  0.51919894  0.22495473  0.06780311    -0.00400
C133        C  0.51335009  0.25404790  0.05186766    -0.12300
C134        C  0.51182980  0.25484044  0.01852779     0.01800
C135        C  0.50711624  0.22217955  0.49730856    -0.00500
C136        C  0.01722533  0.19636008  0.01787321    -0.12200
C137        C  0.01993296  0.19601202  0.05103489     0.01700
H138        H  0.50855959  0.27563308  0.06549021     0.14700
H139        H  0.96295091  0.15277605  0.49860838     0.14700
C140        C  0.03314777  0.16970531  0.06453620     0.36400
C141        C  0.50492525  0.28552140  0.00457846     0.36300
N142        N  0.04377197  0.14844434  0.07494456    -0.44000
N143        N  0.47485635  0.29562156  0.49158233    -0.44000
C144        C  0.27067367  0.46837212  0.38999402    -0.00400
C145        C  0.29465007  0.00209588  0.37342968    -0.09400
C146        C  0.32291353  0.00388517  0.35123556     0.01800
C147        C  0.32886592  0.46866902  0.34731042    -0.00500
C148        C  0.31816307  0.44527171  0.37519552    -0.12200
C149        C  0.28940106  0.44505812  0.39657126     0.01700
H150        H  0.28520607  0.02467917  0.37259996     0.14700
H151        H  0.33224092  0.42722297  0.38026828     0.14700
C152        C  0.27808979  0.41911820  0.42409093     0.36400
C153        C  0.33691647  0.03528649  0.32736312     0.36300
N154        N  0.26855196  0.39818343  0.44610770    -0.44000
N155        N  0.34781087  0.06037957  0.30822002    -0.44000
C156        C  0.08675548  0.48437982  0.36621780    -0.00400
C157        C  0.12478322  0.99093863  0.35082469    -0.12300
C158        C  0.15590525  0.98918866  0.36646462     0.01800
C159        C  0.14989706  0.48282021  0.40020471    -0.00500
C160        C  0.10962905  0.46155910  0.41153743    -0.12200
C161        C  0.07809066  0.46253356  0.39492596     0.01700
H162        H  0.13055617  0.00286125  0.32682140     0.14700
H163        H  0.10256945  0.44301547  0.43265729     0.14700
C164        C  0.03720484  0.43972398  0.40713994     0.36400
C165        C  0.19350888  0.00353789  0.34904622     0.36300
N166        N  0.00454447  0.42192324  0.41729977    -0.44000
N167        N  0.22301471  0.01492539  0.33431106    -0.44000
C168        C  0.33107579  0.46323675  0.21021656    -0.00400
C169        C  0.34249929  0.99801438  0.18839999    -0.12300
C170        C  0.31447766  0.99834537  0.16702704     0.01800
C171        C  0.27370821  0.46439005  0.16838895    -0.00500
C172        C  0.26095343  0.43725652  0.19397298    -0.12200
C173        C  0.28902973  0.43611915  0.21460266     0.01700
H174        H  0.37340081  0.02352869  0.18875032     0.14700
H175        H  0.22866541  0.41720743  0.19819375     0.14700
C176        C  0.27355684  0.40858381  0.24124847     0.36400
C177        C  0.32715646  0.03386091  0.14755801     0.36300
N178        N  0.26118158  0.38652926  0.26258740    -0.44000
N179        N  0.33762874  0.06278833  0.13241510    -0.44000
C180        C  0.14838275  0.47110962  0.16775287    -0.00400
C181        C  0.14951263  0.46857244  0.20098776    -0.12300
C182        C  0.12106305  0.47080897  0.22055397     0.01800
C183        C  0.08980103  0.47611692  0.20721703    -0.00500
C184        C  0.08797055  0.47814750  0.17395581    -0.12200
C185        C  0.11667795  0.47558355  0.15419373     0.01700
H186        H  0.17282742  0.46450137  0.21222831     0.14700
H187        H  0.06406139  0.48175981  0.16330587     0.14700
C188        C  0.11240962  0.47760373  0.12030733     0.36400
C189        C  0.12494873  0.46660559  0.25431802     0.36300
N190        N  0.10858220  0.47909224  0.09316524    -0.44000
N191        N  0.11112950  0.93078805  0.27552486    -0.44000
C192        C  0.21089218  0.46361160  0.06576396    -0.00400
C193        C  0.19688008  0.48613581  0.04929075    -0.12300
C194        C  0.17169191  0.93753325  0.01391693     0.01800
C195        C  0.21667498  0.47300198  0.49683017    -0.00500
C196        C  0.22383392  0.44087626  0.01495220    -0.12200
C197        C  0.22446168  0.44069157  0.04827872     0.01700
H198        H  0.14560047  0.92561459  0.06071276     0.14700
H199        H  0.24006186  0.43162803  0.49778481     0.14700
C200        C  0.23762971  0.41545083  0.06379826     0.36400
C201        C  0.13213408  0.91468273  0.99928564     0.36300
N202        N  0.24811252  0.39517857  0.07624895    -0.44000
N203        N  0.16756527  0.02802682  0.49047097    -0.44000
C204        C  0.31259929  0.30875922  0.39795566    -0.00400
C205        C  0.32102530  0.29914471  0.36773198    -0.12300
C206        C  0.35306427  0.32782246  0.34934722     0.01800
C207        C  0.37772088  0.36827233  0.36066666    -0.00500
C208        C  0.37000870  0.37800161  0.39124343    -0.12200
C209        C  0.33818256  0.34856967  0.41009523     0.01700
H210        H  0.30268177  0.26858414  0.35833186     0.14700
H211        H  0.38863724  0.40865164  0.40034101     0.14700
C212        C  0.33244639  0.36040709  0.44147058     0.36400
C213        C  0.35977537  0.31391704  0.31906226     0.36300
N214        N  0.32831016  0.36996791  0.46675250    -0.44000
N215        N  0.36468123  0.30220960  0.29492840    -0.44000
C216        C  0.12565612  0.12194971  0.35062182    -0.00400
C217        C  0.13462270  0.10987526  0.37957545    -0.12300
C218        C  0.16221120  0.13896324  0.40129020     0.01800
C219        C  0.18195247  0.18093418  0.39374615    -0.00500
C220        C  0.17247520  0.19259385  0.36485254    -0.12200
C221        C  0.14480862  0.16380825  0.34349096     0.01700
H222        H  0.12021366  0.07773313  0.38514536     0.14700
H223        H  0.18735612  0.22454993  0.35856833     0.14700
C224        C  0.13863972  0.17796466  0.31335674     0.36400
C225        C  0.17101527  0.12476716  0.43028512     0.36300
N226        N  0.13382957  0.18913499  0.28910718    -0.44000
N227        N  0.17799779  0.11332229  0.45353588    -0.44000
C228        C  0.31450141  0.30482798  0.16810770    -0.00400
C229        C  0.35458263  0.32397712  0.15615111    -0.12300
C230        C  0.38707703  0.35517205  0.17340933     0.01800
C231        C  0.37950163  0.36770008  0.20303860    -0.00500
C232        C  0.33934642  0.34908877  0.21441094    -0.12200
C233        C  0.30708702  0.31858609  0.19727657     0.01700
H234        H  0.36076116  0.31360641  0.13386698     0.14700
H235        H  0.33293176  0.35821397  0.23716777     0.14700
C236        C  0.26660479  0.30273663  0.21016110     0.36400
C237        C  0.42796204  0.37169144  0.16138481     0.36300
N238        N  0.23425765  0.29016200  0.22055979    -0.44000
N239        N  0.46078502  0.38475658  0.15187429    -0.44000
C240        C  0.12759447  0.11503828  0.21107767    -0.00400
C241        C  0.12273388  0.14716074  0.19966938    -0.12300
C242        C  0.15167462  0.17690469  0.17961259     0.01800
C243        C  0.18627859  0.17490509  0.17053854    -0.00500
C244        C  0.19060974  0.14225865  0.18044275    -0.12200
C245        C  0.16174439  0.11226814  0.20040228     0.01700
H246        H  0.09679332  0.14985331  0.20705891     0.14700
H247        H  0.21723279  0.14071757  0.17308315     0.14700
C248        C  0.16916909  0.08004277  0.20988173     0.36400
C249        C  0.14574868  0.20976975  0.16933153     0.36300
N250        N  0.17560860  0.05452489  0.21736405    -0.44000
N251        N  0.14079682  0.23601132  0.16116111    -0.44000
C252        C  0.24797447  0.23500387  0.06783415    -0.00400
C253        C  0.28490482  0.25381152  0.05107952    -0.12300
C254        C  0.28572588  0.25358882  0.01785607     0.01800
C255        C  0.24369799  0.24224557  0.49832205    -0.00500
C256        C  0.21189613  0.21530554  0.01735643    -0.12200
C257        C  0.21108463  0.21527199  0.05054673     0.01700
H258        H  0.31341096  0.26834811  0.06399670     0.14700
H259        H  0.17811767  0.20872385  0.50034339     0.14700
C260        C  0.17174644  0.19608424  0.06588601     0.36400
C261        C  0.32502737  0.27194500  0.00248425     0.36300
N262        N  0.14015312  0.18057706  0.07804488    -0.44000
N263        N  0.35660565  0.28663926  0.99032462    -0.44000
C264        C  0.20943864  0.21308395  0.64990000     0.80000
N265        N  0.20825060  0.21308772  0.61771642    -0.78300
C266        C  0.23958078  0.24315678  0.60101666     0.82400
N267        N  0.27207893  0.27317423  0.61697182    -0.78300
C268        C  0.27318333  0.27338424  0.64922606     0.82500
N269        N  0.24204283  0.24278875  0.66533972    -0.80000
C270        C  0.21186010  0.21057123  0.91724589     0.80000
N271        N  0.24326199  0.24148991  0.90147575    -0.78300
C272        C  0.27681414  0.26971012  0.91729339     0.82400
N273        N  0.27853141  0.26679848  0.94921996    -0.78300
C274        C  0.24740331  0.23611452  0.96541471     0.82500
N275        N  0.21401757  0.20795807  0.94925383    -0.80000
C276        C  0.24064243  0.46121398  0.64816573     0.80000
N277        N  0.20804309  0.45921054  0.66302750    -0.78300
C278        C  0.17822561  0.46074951  0.64654710     0.82400
N279        N  0.18129750  0.46388834  0.61437570    -0.78300
C280        C  0.21365151  0.46526569  0.59901045     0.82500
N281        N  0.24346886  0.46429503  0.61607058    -0.80000
C282        C  0.23925116  0.46261067  0.91409722     0.80000
N283        N  0.23871330  0.46048282  0.94637885    -0.78300
C284        C  0.20896022  0.46243811  0.96321827     0.82400
N285        N  0.17960367  0.46578957  0.94749485    -0.78300
C286        C  0.18018816  0.46839852  0.91540707     0.82500
N287        N  0.21020282  0.46695284  0.89893317    -0.80000
C288        C  0.50008137  0.24279708  0.64991076     0.80000
N289        N  0.49457850  0.20864778  0.66445287    -0.78300
C290        C  0.49416495  0.17792747  0.64756071     0.82400
N291        N  0.49915853  0.18158789  0.61554366    -0.78300
C292        C  0.50449819  0.21557712  0.60039653     0.82500
N293        N  0.50477895  0.24613301  0.61784084    -0.80000
C294        C  0.49957507  0.24542708  0.91601136     0.80000
N295        N  0.49467476  0.21150384  0.90128092    -0.78300
C296        C  0.49776094  0.18232737  0.91737600     0.82400
N297        N  0.50531674  0.18738453  0.94921424    -0.78300
C298        C  0.51009700  0.22141113  0.96461839     0.82500
N299        N  0.50731284  0.25029326  0.94761685    -0.80000
O300        O  0.39105403  0.00434930  0.74177776    -0.88400
C301        C  0.09123969  0.09675807  0.83075775     1.11600
O302        O  0.43678531  0.46809435  0.78114419    -1.36200
O303        O  0.06566885  0.09974182  0.74750436    -0.89900
O304        O  0.35429030  0.43110448  0.74654786    -0.90600
O305        O  0.43969425  0.42511718  0.71445120    -0.79400
O306        O  0.48152825  0.05078488  0.75026135    -1.01500
C307        C  0.05574939  0.46798572  0.72533989     1.21700
O308        O  0.48196196  0.42834391  0.78294044    -1.36400
Mn309      Mn  0.47877352  0.47022007  0.81712655     1.82100
O310        O  0.02508848  0.46874895  0.71530033    -0.78500
O311        O  0.10288739  0.06951158  0.75063307    -0.87900
C312        C  0.05469462  0.47231777  0.84141330     1.12800
C313        C  0.09548061  0.09562947  0.73856911     1.07500
O314        O  0.43630458  0.42670892  0.85011156    -0.79400
O315        O  0.02110625  0.01777687  0.78391975    -1.33100
O316        O  0.40195360  0.38825163  0.81186333    -0.98600
C317        C  0.48742992  0.35445315  0.73704417     1.06200
Mn318      Mn  0.07999511  0.02535252  0.78576367     1.48600
O319        O  0.45279955  0.34862396  0.74543635    -0.87800
Mn320      Mn  0.38015182  0.41342279  0.78169625     1.49600
O321        O  0.38799161  0.00497135  0.81261464    -0.91700
C322        C  0.48309880  0.04526690  0.72189278     1.19400
C323        C  0.35913105  0.46665531  0.82633313     1.11400
Mn324      Mn  0.48098962  0.46904727  0.74727333     1.81000
O325        O  0.06005654  0.47128769  0.81301437    -0.96800
Mn326      Mn  0.43453520  0.02543312  0.77864272     1.49300
C327        C  0.35909690  0.46379932  0.73472558     1.08000
Mn328      Mn  0.03520570  0.42471826  0.78378008     1.49900
C329        C  0.48476993  0.35435854  0.82919901     1.10900
O330        O  0.40330522  0.38963503  0.75256852    -1.02600
O331        O  0.09967257  0.06986454  0.82149933    -0.92300
C332        C  0.40780117  0.39444694  0.72402546     1.22200
O333        O  0.06057794  0.46971743  0.75392798    -1.03000
O334        O  0.06310430  0.10104551  0.81855624    -0.90400
O335        O  0.01486513  0.38109731  0.81977170    -0.90000
O336        O  0.35423871  0.43242970  0.81729475    -0.90100
Mn337      Mn  0.02013893  0.07334441  0.78246440     1.47900
O338        O  0.02306001  0.47216940  0.85022565    -0.78500
C339        C  0.40663938  0.39364476  0.84077472     1.15200
O340        O  0.48494037  0.01450396  0.71341047    -0.77300
O341        O  0.47891143  0.01606273  0.84802307    -0.76900
Mn342      Mn  0.43029589  0.36980879  0.78130724     1.51100
O343        O  0.01541037  0.37898044  0.74839061    -0.89200
O344        O  0.47891059  0.05182107  0.80971977    -0.96800
O345        O  0.45116505  0.34583898  0.81639176    -0.91800
C346        C  0.47839387  0.04703554  0.83836047     1.13000
C347        C  0.47960704  0.07866490  0.86028203    -0.00400
C348        C  0.49858309  0.08550063  0.89012203    -0.12300
C349        C  0.50460068  0.11843626  0.90961400     0.01800
C350        C  0.49073799  0.14499117  0.89958005    -0.00500
C351        C  0.47035548  0.13682331  0.87026988    -0.12200
C352        C  0.46507867  0.10473493  0.85068310     0.01700
H353        H  0.51040469  0.06616177  0.89765218     0.14700
H354        H  0.45873336  0.15607856  0.86208740     0.14700
C355        C  0.44492871  0.10000390  0.82059947     0.36400
C356        C  0.52696395  0.12515448  0.93875893     0.36300
N357        N  0.42907063  0.09678738  0.79647200    -0.44000
N358        N  0.54512463  0.13014222  0.96196988    -0.44000
C359        C  0.49380873  0.27510680  0.89755763    -0.00400
C360        C  0.45990586  0.26009914  0.87752307    -0.12300
C361        C  0.45502435  0.28560967  0.85641741     0.01800
C362        C  0.48521464  0.32728096  0.85446662    -0.00500
C363        C  0.01445394  0.33853558  0.87437714    -0.12200
C364        C  0.01738825  0.31283354  0.89673177     0.01700
H365        H  0.43744516  0.22789492  0.87788389     0.14700
H366        H  0.03951560  0.36942067  0.87210153     0.14700
C367        C  0.05373800  0.32855625  0.91577890     0.36400
C368        C  0.41979132  0.26723015  0.83598832     0.36300
N369        N  0.08292239  0.34127064  0.93100135    -0.44000
N370        N  0.39141196  0.25216178  0.81978419    -0.44000
C371        C  0.48240359  0.07478839  0.69937686    -0.00400
C372        C  0.46012763  0.09355289  0.70845398    -0.12300
C373        C  0.46210137  0.12569391  0.69116941     0.01800
C374        C  0.48757141  0.14062472  0.66416315    -0.00500
C375        C  0.99981323  0.11766609  0.65484886    -0.12200
C376        C  0.99848695  0.08573929  0.67261361     0.01700
H377        H  0.44141794  0.08347246  0.72969328     0.14700
H378        H  0.01919478  0.12866640  0.63403159     0.14700
C379        C  0.02357114  0.06902931  0.66271785     0.36400
C380        C  0.43710564  0.14223263  0.70179459     0.36300
N381        N  0.04390329  0.05583781  0.65490104    -0.44000
N382        N  0.41680769  0.15502356  0.71060802    -0.44000
C383        C  0.48914506  0.32693193  0.71246535    -0.00400
C384        C  0.01532142  0.33731614  0.69130143    -0.12300
C385        C  0.01766238  0.31058526  0.66928089     0.01800
C386        C  0.49639998  0.27356947  0.66903103    -0.00500
C387        C  0.46095286  0.26033586  0.68703862    -0.12200
C388        C  0.45684727  0.28634933  0.70841368     0.01700
H389        H  0.04036449  0.36836051  0.69303503     0.14700
H390        H  0.43645049  0.22915510  0.68468770     0.14700
C391        C  0.41971342  0.26948687  0.72678310     0.36400
C392        C  0.05372912  0.32519909  0.64993018     0.36300
N393        N  0.38982144  0.25576567  0.74130520    -0.44000
N394        N  0.08270595  0.33708406  0.63445389    -0.44000
C395        C  0.50704693  0.21817633  0.56495033    -0.00400
C396        C  0.49716102  0.24479934  0.54936614    -0.12300
C397        C  0.49695343  0.24695125  0.51606131     0.01800
C398        C  0.51587361  0.22559860  0.99998678    -0.00500
C399        C  0.97990318  0.18019991  0.51283049    -0.12200
C400        C  0.97679897  0.17712674  0.54585862     0.01700
H401        H  0.48853433  0.26344938  0.56319397     0.14700
H402        H  0.02414286  0.17628714  0.00401994     0.14700
C403        C  0.95025211  0.13736429  0.55912082     0.36400
C404        C  0.48472098  0.27387668  0.50224130     0.36300
N405        N  0.92883861  0.10539427  0.56949792    -0.44000
N406        N  0.49953696  0.31031518  0.99362172    -0.44000
C407        C  0.27320559  0.46480077  0.89512960    -0.00400
C408        C  0.28507009  0.99493016  0.86396755    -0.09400
C409        C  0.31441908  0.99672436  0.84283306     0.01800
C410        C  0.33142977  0.46762656  0.85116315    -0.00500
C411        C  0.31237111  0.43547627  0.87314002    -0.12200
C412        C  0.28374468  0.43407773  0.89523232     0.01700
H413        H  0.27175705  0.01380385  0.85952484     0.14700
H414        H  0.31943243  0.41110986  0.87282527     0.14700
C415        C  0.26436498  0.40005491  0.91672079     0.36400
C416        C  0.32415191  0.02258873  0.81530736     0.36300
N417        N  0.24892272  0.37282671  0.93400739    -0.44000
N418        N  0.33175037  0.04318423  0.79321430    -0.44000
C419        C  0.08626517  0.47513404  0.86348128    -0.00400
C420        C  0.12730911  0.00761043  0.85736977    -0.12300
C421        C  0.15845498  0.00678439  0.87416117     0.01800
C422        C  0.14881209  0.47346559  0.89850525    -0.00500
C423        C  0.10866178  0.45435810  0.91025501    -0.12200
C424        C  0.07744423  0.45527273  0.89310121     0.01700
H425        H  0.13504863  0.02719327  0.83675691     0.14700
H426        H  0.10130810  0.43735794  0.93227643     0.14700
C427        C  0.03641944  0.43339119  0.90528579     0.36400
C428        C  0.19990277  0.03463961  0.86472211     0.36300
N429        N  0.00346197  0.41564720  0.91491351    -0.44000
N430        N  0.23296142  0.05747337  0.85715172    -0.44000
C431        C  0.32932909  0.46068409  0.71067983    -0.00400
C432        C  0.34200584  0.98786814  0.68253000    -0.12300
C433        C  0.31227850  0.98504247  0.66118733     0.01800
C434        C  0.27230144  0.45987050  0.66740615    -0.00500
C435        C  0.25981028  0.43041802  0.69128030    -0.12200
C436        C  0.28768659  0.43046455  0.71281661     0.01700
H437        H  0.37401660  0.00738404  0.67699207     0.14700
H438        H  0.22777631  0.40786291  0.69366793     0.14700
C439        C  0.27197659  0.40099740  0.73822848     0.36400
C440        C  0.32532582  0.00978635  0.63295720     0.36300
N441        N  0.25932556  0.37756119  0.75867275    -0.44000
N442        N  0.33569687  0.02974680  0.61037084    -0.44000
C443        C  0.14355740  0.45948766  0.66451781    -0.00400
C444        C  0.13928435  0.44802286  0.69659114    -0.12300
C445        C  0.11093888  0.45011100  0.71638592     0.01800
C446        C  0.08464533  0.46319091  0.70421842    -0.00500
C447        C  0.08704898  0.47250867  0.67172389    -0.12200
C448        C  0.11624985  0.47102412  0.65187949     0.01700
H449        H  0.15889484  0.43797682  0.70680279     0.14700
H450        H  0.06694258  0.48221415  0.66198197     0.14700
C451        C  0.11796742  0.48277139  0.61912208     0.36400
C452        C  0.11039552  0.43880598  0.74923304     0.36300
N453        N  0.11899183  0.49220778  0.59288562    -0.44000
N454        N  0.15049891  0.00567299  0.77745040    -0.44000
C455        C  0.21639659  0.46830047  0.56394231    -0.00400
C456        C  0.20402617  0.49306948  0.54885444    -0.12300
C457        C  0.19278529  0.98256653  0.51638430     0.01800
C458        C  0.20961859  0.46334579  0.99848312    -0.00500
C459        C  0.23044466  0.44928635  0.51196600    -0.12200
C460        C  0.23042346  0.44674499  0.54520665     0.01700
H461        H  0.18152786  0.99761588  0.56304958     0.14700
H462        H  0.23384626  0.42283041  0.00176239     0.14700
C463        C  0.24294559  0.42018049  0.55929456     0.36400
C464        C  0.17885531  0.00785007  0.50194403     0.36300
N465        N  0.25296038  0.39888231  0.57059527    -0.44000
N466        N  0.10031842  0.89611165  0.98779903    -0.44000
C467        C  0.31180331  0.30189814  0.89936380    -0.00400
C468        C  0.31666526  0.29339351  0.86782548    -0.12300
C469        C  0.34774204  0.32220555  0.84891761     0.01800
C470        C  0.37596343  0.36122254  0.86163336    -0.00500
C471        C  0.37197305  0.36947713  0.89355431    -0.12200
C472        C  0.34002541  0.34040134  0.91237811     0.01700
H473        H  0.29571281  0.26392336  0.85758219     0.14700
H474        H  0.39276019  0.39918975  0.90345307     0.14700
C475        C  0.33569422  0.35195317  0.94423667     0.36400
C476        C  0.34847005  0.31037392  0.81622825     0.36300
N477        N  0.33215421  0.36134837  0.96973490    -0.44000
N478        N  0.34853334  0.30092358  0.79002690    -0.44000
C479        C  0.11663432  0.12527605  0.85619791    -0.00400
C480        C  0.13153992  0.11098976  0.88043974    -0.12300
C481        C  0.16040226  0.13793172  0.90225321     0.01800
C482        C  0.17604147  0.18021076  0.89915457    -0.00500
C483        C  0.15939444  0.19424146  0.87619072    -0.12200
C484        C  0.12927669  0.16721424  0.85527419     0.01700
H485        H  0.12121657  0.07877146  0.88195126     0.14700
H486        H  0.17058099  0.22661142  0.87419441     0.14700
C487        C  0.11356048  0.18383646  0.83221386     0.36400
C488        C  0.17484265  0.12149619  0.92645141     0.36300
N489        N  0.10076851  0.19724243  0.81398929    -0.44000
N490        N  0.18601566  0.10807720  0.94596526    -0.44000
C491        C  0.30771381  0.30639928  0.66710953    -0.00400
C492        C  0.34740423  0.32533332  0.65441481    -0.12300
C493        C  0.38082670  0.35477638  0.67199886     0.01800
C494        C  0.37463823  0.36548263  0.70284190    -0.00500
C495        C  0.33491739  0.34683525  0.71511472    -0.12200
C496        C  0.30173014  0.31835007  0.69759515     0.01700
H497        H  0.35249545  0.31634528  0.63110158     0.14700
H498        H  0.32950207  0.35466149  0.73876533     0.14700
C499        C  0.26177050  0.30294874  0.71139944     0.36400
C500        C  0.42112539  0.37175549  0.65866601     0.36300
N501        N  0.22977511  0.29068497  0.72241023    -0.44000
N502        N  0.45347844  0.38529694  0.64805025    -0.44000
C503        C  0.12350066  0.12303119  0.71346130    -0.00400
C504        C  0.11209031  0.14688708  0.69543012    -0.12300
C505        C  0.13878526  0.17512241  0.67316881     0.01800
C506        C  0.17756429  0.17968582  0.66855322    -0.00500
C507        C  0.18871664  0.15548271  0.68570914    -0.12200
C508        C  0.16251290  0.12755016  0.70804291     0.01700
H509        H  0.08267329  0.14435936  0.69927707     0.14700
H510        H  0.21897653  0.15969841  0.68252259     0.14700
C511        C  0.17849237  0.10671631  0.72639638     0.36400
C512        C  0.12678692  0.20082600  0.65693836     0.36300
N513        N  0.19229245  0.09089365  0.74102695    -0.44000
N514        N  0.11712472  0.22152854  0.64413052    -0.44000
C515        C  0.23965772  0.24239322  0.56568550    -0.00400
C516        C  0.27730196  0.26119596  0.54988702    -0.12300
C517        C  0.27970162  0.26130266  0.51673376     0.01800
C518        C  0.24879661  0.23470070  0.00056673    -0.00500
C519        C  0.20598682  0.22304489  0.51407634    -0.12200
C520        C  0.20360285  0.22318266  0.54733856     0.01700
H521        H  0.30526999  0.27553819  0.56350522     0.14700
H522        H  0.18331648  0.20092059  0.00454504     0.14700
C523        C  0.16369336  0.20490361  0.56166232     0.36400
C524        C  0.31976406  0.28025503  0.50260229     0.36300
N525        N  0.13163211  0.19030367  0.57298715    -0.44000
N526        N  0.35196592  0.29557635  0.49147190    -0.44000
C527        C  0.21195529  0.71263769  0.14924084     0.80000
N528        N  0.21210950  0.71185973  0.11707315    -0.78300
C529        C  0.24332811  0.74230604  0.10057862     0.82400
N530        N  0.27452983  0.77358581  0.11670384    -0.78300
C531        C  0.27442088  0.77469107  0.14902784     0.82500
N532        N  0.24326167  0.74363130  0.16491086    -0.80000
C533        C  0.21231904  0.71464706  0.41564038     0.80000
N534        N  0.24380833  0.74622556  0.40048145    -0.78300
C535        C  0.27704245  0.77423861  0.41668622     0.82400
N536        N  0.27861656  0.77036508  0.44849304    -0.78300
C537        C  0.24752137  0.73895570  0.46414170     0.82500
N538        N  0.21428591  0.71118011  0.44760130    -0.80000
C539        C  0.24201381  0.96638907  0.14765833     0.80000
N540        N  0.20984465  0.96497710  0.16271369    -0.78300
C541        C  0.17822838  0.96289213  0.14628150     0.82400
N542        N  0.17896361  0.96157320  0.11396770    -0.78300
C543        C  0.21121931  0.96285510  0.09837828     0.82500
N544        N  0.24264663  0.96517438  0.11548402    -0.80000
C545        C  0.24235772  0.96712432  0.41459132     0.80000
N546        N  0.24058206  0.96349489  0.44676973    -0.78300
C547        C  0.20924777  0.96303734  0.46307969     0.82400
N548        N  0.17974063  0.96563068  0.44696020    -0.78300
C549        C  0.18135812  0.96940375  0.41495129     0.82500
N550        N  0.21281579  0.97015109  0.39908435    -0.80000
C551        C  0.49856380  0.74607175  0.15074653     0.80000
N552        N  0.49365569  0.71251358  0.16592616    -0.78300
C553        C  0.49289933  0.68127268  0.14955392     0.82400
N554        N  0.49696938  0.68385901  0.11746586    -0.78300
C555        C  0.50174207  0.71722216  0.10175739     0.82500
N556        N  0.50224827  0.74827501  0.11860108    -0.80000
C557        C  0.49768845  0.74772850  0.41706959     0.80000
N558        N  0.49330605  0.71448275  0.40145079    -0.78300
C559        C  0.49710053  0.68523416  0.41679994     0.82400
N560        N  0.50457564  0.68935008  0.44859050    -0.78300
C561        C  0.50878194  0.72249221  0.46489241     0.82500
N562        N  0.50543214  0.75167022  0.44874285    -0.80000
O563        O  0.38837012  0.50150125  0.24294507    -0.88400
C564        C  0.09235833  0.59835327  0.32938439     1.11600
O565        O  0.43804092  0.97266586  0.28070682    -1.36200
O566        O  0.06559105  0.59919179  0.24561248    -0.89900
O567        O  0.35552776  0.93573037  0.24579581    -0.90600
O568        O  0.44053815  0.92864615  0.21448209    -0.79400
O569        O  0.47790883  0.55100067  0.25034447    -1.01500
C570        C  0.05507422  0.96789630  0.22600289     1.21700
O571        O  0.48233850  0.93206351  0.28336796    -1.36400
Mn572      Mn  0.47960872  0.97460833  0.31700076     1.82100
O573        O  0.02419448  0.96818672  0.21598008    -0.78500
O574        O  0.10335229  0.56980189  0.25043171    -0.87900
C575        C  0.05384033  0.97264807  0.34316813     1.12800
C576        C  0.09570723  0.59519973  0.23729430     1.07500
O577        O  0.43668216  0.93195626  0.35024028    -0.79400
O578        O  0.02130513  0.51830657  0.28383610    -1.33100
O579        O  0.40258020  0.89346582  0.31201516    -0.98600
C580        C  0.48691811  0.85790140  0.23781623     1.06200
Mn581      Mn  0.08003885  0.52580571  0.28581753     1.48600
O582        O  0.45244699  0.85211695  0.24653022    -0.87800
Mn583      Mn  0.38110761  0.91836199  0.28139200     1.49600
O584        O  0.38563119  0.50289465  0.31342127    -0.91700
C585        C  0.47928608  0.54592568  0.22194623     1.19400
C586        C  0.36157058  0.97262047  0.32611349     1.11400
Mn587      Mn  0.48213222  0.97257195  0.24722142     1.81000
O588        O  0.05978838  0.97115320  0.31436792    -0.96800
Mn589      Mn  0.43172955  0.52473280  0.27921827     1.49300
C590        C  0.36025397  0.96854986  0.23427764     1.08000
Mn591      Mn  0.03418252  0.92355886  0.28416691     1.49900
C592        C  0.48395656  0.85761888  0.33027329     1.10900
O593        O  0.40377887  0.89383904  0.25263504    -1.02600
O594        O  0.10007563  0.57059586  0.32131067    -0.92300
C595        C  0.40824703  0.89840321  0.22403240     1.22200
O596        O  0.05973868  0.96956154  0.25464156    -1.03000
O597        O  0.06456081  0.60281070  0.31666899    -0.90400
O598        O  0.01458672  0.88008180  0.31992518    -0.90000
O599        O  0.35578116  0.93821595  0.31670410    -0.90100
Mn600      Mn  0.02060595  0.57393855  0.28131059     1.47900
O601        O  0.02174573  0.97190420  0.35160655    -0.78500
C602        C  0.40700683  0.89892825  0.34091880     1.15200
O603        O  0.48163535  0.51551818  0.21316315    -0.77300
O604        O  0.47843051  0.51902324  0.34805918    -0.76900
Mn605      Mn  0.43025226  0.87386836  0.28195861     1.51100
O606        O  0.01522070  0.87872450  0.24897214    -0.89200
O607        O  0.47647888  0.55354414  0.30960360    -0.96800
O608        O  0.45039431  0.84954433  0.31757205    -0.91800
C609        C  0.47705402  0.54948216  0.33824162     1.13000
C610        C  0.47897535  0.58161625  0.35990541    -0.00400
C611        C  0.50044317  0.59024818  0.38871215    -0.12300
C612        C  0.50693832  0.62357684  0.40783711     0.01800
C613        C  0.49086197  0.64855743  0.39860406    -0.00500
C614        C  0.46864523  0.63909582  0.37014860    -0.12200
C615        C  0.46296222  0.60662883  0.35081312     0.01700
H616        H  0.51382605  0.57204804  0.39561102     0.14700
H617        H  0.45571761  0.65746365  0.36258607     0.14700
C618        C  0.44065418  0.60022553  0.32159536     0.36400
C619        C  0.53229305  0.63263233  0.43557598     0.36300
N620        N  0.42299753  0.59565553  0.29817063    -0.44000
N621        N  0.55291688  0.63978448  0.45762906    -0.44000
C622        C  0.49228977  0.77813800  0.39931412    -0.00400
C623        C  0.45650932  0.76455524  0.38177418    -0.12300
C624        C  0.45200586  0.79022626  0.36048375     0.01800
C625        C  0.48435548  0.83064587  0.35588786    -0.00500
C626        C  0.01175106  0.84075147  0.37821229    -0.12200
C627        C  0.01601438  0.81520136  0.39991349     0.01700
H628        H  0.43233005  0.73311953  0.38400121     0.14700
H629        H  0.03342136  0.87314151  0.37868908     0.14700
C630        C  0.04996564  0.83291140  0.42162029     0.36400
C631        C  0.41479371  0.77278282  0.34240102     0.36300
N632        N  0.07732653  0.84719513  0.43888009    -0.44000
N633        N  0.38478343  0.75797128  0.32809737    -0.44000
C634        C  0.47885043  0.57621047  0.20008406    -0.00400
C635        C  0.45950142  0.59729742  0.21095955    -0.12300
C636        C  0.46296763  0.63079770  0.19472888     0.01800
C637        C  0.48626013  0.64415400  0.16650382    -0.00500
C638        C  0.00338957  0.61761639  0.15522701    -0.12200
C639        C  0.00070308  0.58511377  0.17289637     0.01700
H640        H  0.44212883  0.58806283  0.23288947     0.14700
H641        H  0.02512470  0.63005845  0.13589746     0.14700
C642        C  0.02673440  0.56893005  0.16445712     0.36400
C643        C  0.44189840  0.65041336  0.20784107     0.36300
N644        N  0.04767819  0.55601268  0.15781079    -0.44000
N645        N  0.42497887  0.66588760  0.21868500    -0.44000
C646        C  0.48812881  0.83054876  0.21287737    -0.00400
C647        C  0.02011886  0.83529799  0.19687167    -0.12300
C648        C  0.02435290  0.80906871  0.17556203     0.01800
C649        C  0.49486591  0.77716334  0.16927909    -0.00500
C650        C  0.45884979  0.76454692  0.18635299    -0.12200
C651        C  0.45492166  0.79063669  0.20775107     0.01700
H652        H  0.04615653  0.86517001  0.20125885     0.14700
H653        H  0.43378859  0.73363279  0.18338139     0.14700
C654        C  0.41695812  0.77448330  0.22496749     0.36400
C655        C  0.06351651  0.82239153  0.16102910     0.36300
N656        N  0.38641683  0.76138420  0.23855539    -0.44000
N657        N  0.09497480  0.83308007  0.14950952    -0.44000
C658        C  0.50196378  0.71778749  0.06638957    -0.00400
C659        C  0.48651692  0.73978179  0.05075246    -0.12300
C660        C  0.48242254  0.73836770  0.01762073     0.01800
C661        C  0.51435452  0.72496600  0.50030091    -0.00500
C662        C  0.02481572  0.69809843  0.01514896    -0.12200
C663        C  0.02357354  0.69548439  0.04837468     0.01700
H664        H  0.47602449  0.75699343  0.06452932     0.14700
H665        H  0.02775308  0.67650981  0.50297992     0.14700
C666        C  0.03408935  0.66745212  0.06254139     0.36400
C667        C  0.46337010  0.75934248  0.00371940     0.36300
N668        N  0.04233848  0.64461080  0.07342641    -0.44000
N669        N  0.50962027  0.81666110  0.49633984    -0.44000
C670        C  0.27715718  0.97085384  0.39593034    -0.00400
C671        C  0.28095233  0.49090310  0.36172700    -0.09400
C672        C  0.30942404  0.49115064  0.34051423     0.01800
C673        C  0.33456736  0.97384594  0.35126082    -0.00500
C674        C  0.31844531  0.94350668  0.37484187    -0.12200
C675        C  0.29015792  0.94202697  0.39727028     0.01700
H676        H  0.26652766  0.50843305  0.35596917     0.14700
H677        H  0.32736504  0.92052060  0.37540248     0.14700
C678        C  0.27334265  0.90955629  0.42025563     0.36400
C679        C  0.31634599  0.51298806  0.31099292     0.36300
N680        N  0.25980916  0.88364234  0.43878817    -0.44000
N681        N  0.32164728  0.53020327  0.28725917    -0.44000
C682        C  0.08621191  0.97631316  0.36467529    -0.00400
C683        C  0.12744840  0.50797405  0.35644052    -0.12300
C684        C  0.15889005  0.50801383  0.37339483     0.01800
C685        C  0.14953452  0.97347162  0.39766046    -0.00500
C686        C  0.11163956  0.96112799  0.41247107    -0.12200
C687        C  0.07995058  0.96223524  0.39617803     0.01700
H688        H  0.13475848  0.52605148  0.33503378     0.14700
H689        H  0.10617233  0.94926305  0.43644421     0.14700
C690        C  0.04105488  0.94694542  0.41163440     0.36400
C691        C  0.20019058  0.53522843  0.36324664     0.36300
N692        N  0.00981068  0.93463014  0.42398344    -0.44000
N693        N  0.23320213  0.55756495  0.35525998    -0.44000
C694        C  0.33076695  0.96590929  0.21002340    -0.00400
C695        C  0.34402021  0.48999663  0.18423242    -0.12300
C696        C  0.31573145  0.49033773  0.16304330     0.01800
C697        C  0.27403444  0.96581977  0.16678872    -0.00500
C698        C  0.26238691  0.93343901  0.18785400    -0.12200
C699        C  0.29003547  0.93315931  0.20945070     0.01700
H700        H  0.37625478  0.51103463  0.18074512     0.14700
H701        H  0.23099751  0.90877137  0.18811650     0.14700
C702        C  0.27455517  0.90037466  0.23222096     0.36400
C703        C  0.33045350  0.51891878  0.13708704     0.36300
N704        N  0.26189723  0.87426935  0.25059114    -0.44000
N705        N  0.34232507  0.54177433  0.11623941    -0.44000
C706        C  0.14357257  0.96125271  0.16452769    -0.00400
C707        C  0.13984486  0.94999926  0.19663127    -0.12300
C708        C  0.11131180  0.95150992  0.21662812     0.01800
C709        C  0.08442829  0.96396077  0.20469642    -0.00500
C710        C  0.08652183  0.97331990  0.17217644    -0.12200
C711        C  0.11582485  0.97227220  0.15211188     0.01700
H712        H  0.15989161  0.94036792  0.20661426     0.14700
H713        H  0.06605042  0.98262352  0.16258088     0.14700
C714        C  0.11746404  0.98409402  0.11937643     0.36400
C715        C  0.11095754  0.93998083  0.24937538     0.36300
N716        N  0.11865464  0.99355306  0.09312462    -0.44000
N717        N  0.12828298  0.46308188  0.28126292    -0.44000
C718        C  0.21119669  0.96016133  0.06305293    -0.00400
C719        C  0.17366972  0.93991525  0.04714481    -0.12300
C720        C  0.19637470  0.48648860  0.01610769     0.01800
C721        C  0.20792085  0.96148120  0.49824393    -0.00500
C722        C  0.24535089  0.97488312  0.01151744    -0.12200
C723        C  0.24741917  0.97704042  0.04474563     0.01700
H724        H  0.18712448  0.50442449  0.06242545     0.14700
H725        H  0.23266026  0.92136813  0.50039555     0.14700
C726        C  0.28733820  0.99843001  0.05889284     0.36400
C727        C  0.18386699  0.51252334  0.00101958     0.36300
N728        N  0.31967415  0.01556124  0.06965696    -0.44000
N729        N  0.18459536  0.54633392  0.49118869    -0.44000
C730        C  0.31208617  0.80676804  0.39909923    -0.00400
C731        C  0.31709936  0.79859492  0.36752287    -0.12300
C732        C  0.34816617  0.82757153  0.34878939     0.01800
C733        C  0.37621539  0.86651753  0.36168012    -0.00500
C734        C  0.37211865  0.87449268  0.39366577    -0.12200
C735        C  0.34021878  0.84511679  0.41238349     0.01700
H736        H  0.29632901  0.76917139  0.35711367     0.14700
H737        H  0.39286548  0.90411273  0.40372715     0.14700
C738        C  0.33602851  0.85602986  0.44449223     0.36400
C739        C  0.34922503  0.81579956  0.31613916     0.36300
N740        N  0.33265701  0.86488581  0.47021758    -0.44000
N741        N  0.34967042  0.80622798  0.29003412    -0.44000
C742        C  0.11850851  0.62818076  0.35367324    -0.00400
C743        C  0.12745988  0.61449137  0.38175108    -0.12300
C744        C  0.15600346  0.64211751  0.40350059     0.01800
C745        C  0.17704411  0.68428956  0.39670838    -0.00500
C746        C  0.16658608  0.69783325  0.36923234    -0.12200
C747        C  0.13750991  0.67037688  0.34793587     0.01700
H748        H  0.11270475  0.58209265  0.38636420     0.14700
H749        H  0.18204781  0.73006481  0.36385975     0.14700
C750        C  0.13005112  0.68623705  0.31919576     0.36400
C751        C  0.16442854  0.62601822  0.43159643     0.36300
N752        N  0.12414794  0.69892103  0.29614039    -0.44000
N753        N  0.17091665  0.61300593  0.45419266    -0.44000
C754        C  0.30814804  0.80882225  0.16715995    -0.00400
C755        C  0.34663078  0.83290068  0.15290455    -0.12300
C756        C  0.37974932  0.86317203  0.17031153     0.01800
C757        C  0.37479196  0.86942494  0.20276915    -0.00500
C758        C  0.33594278  0.84657990  0.21639232    -0.12200
C759        C  0.30293602  0.81716847  0.19913717     0.01700
H760        H  0.35120529  0.82750783  0.12829555     0.14700
H761        H  0.33103220  0.85179291  0.24098720     0.14700
C762        C  0.26399005  0.79687257  0.21512296     0.36400
C763        C  0.41848113  0.88644778  0.15454294     0.36300
N764        N  0.23284538  0.78070556  0.22797543    -0.44000
N765        N  0.44950265  0.90525350  0.14185847    -0.44000
C766        C  0.12393310  0.62202781  0.21181374    -0.00400
C767        C  0.11409572  0.64781588  0.19476057    -0.12300
C768        C  0.14120227  0.67573274  0.17247661     0.01800
C769        C  0.17948606  0.67917172  0.16763909    -0.00500
C770        C  0.18894188  0.65278073  0.18350214    -0.12200
C771        C  0.16156543  0.62391857  0.20492178     0.01700
H772        H  0.08542411  0.64666992  0.19907763     0.14700
H773        H  0.21832221  0.65528335  0.17953250     0.14700
C774        C  0.17404779  0.59771689  0.21976990     0.36400
C775        C  0.12957335  0.70130692  0.15558378     0.36300
N776        N  0.18423692  0.57675980  0.23144568    -0.44000
N777        N  0.11997552  0.72151829  0.14193595    -0.44000
C778        C  0.24411224  0.74074938  0.06532537    -0.00400
C779        C  0.28187597  0.75810506  0.04973393    -0.12300
C780        C  0.28431986  0.75693073  0.01657956     0.01800
C781        C  0.24924210  0.73588997  0.49909740    -0.00500
C782        C  0.21058252  0.72067873  0.01377459    -0.12200
C783        C  0.20816479  0.72184734  0.04689062     0.01700
H784        H  0.30969467  0.77213442  0.06351401     0.14700
H785        H  0.18388727  0.70495666  0.50376925     0.14700
C786        C  0.16827913  0.70490856  0.06096967     0.36400
C787        C  0.32424562  0.77397497  0.00237967     0.36300
N788        N  0.13623541  0.69129538  0.07213979    -0.44000
N789        N  0.35625481  0.78765748  0.99107284    -0.44000
C790        C  0.22221938  0.70617884  0.65081846     0.80000
N791        N  0.22131050  0.70436843  0.61868600    -0.78300
C792        C  0.25142667  0.73461244  0.60136032     0.82400
N793        N  0.28281934  0.76665709  0.61653170    -0.78300
C794        C  0.28368722  0.76883410  0.64875209     0.82500
N795        N  0.25327480  0.73841424  0.66577265    -0.80000
C796        C  0.21741546  0.71025269  0.91384411     0.80000
N797        N  0.24878131  0.74188426  0.89874477    -0.78300
C798        C  0.28038229  0.77171534  0.91526686     0.82400
N799        N  0.28008215  0.76985230  0.94735027    -0.78300
C800        C  0.24886625  0.73854527  0.96298292     0.82500
N801        N  0.21741876  0.70862534  0.94609633    -0.80000
C802        C  0.23777036  0.96008247  0.64949470     0.80000
N803        N  0.20807559  0.96326747  0.66481232    -0.78300
C804        C  0.17800164  0.96476297  0.64872614     0.82400
N805        N  0.17767883  0.96247709  0.61653624    -0.78300
C806        C  0.20680386  0.95844229  0.60065465     0.82500
N807        N  0.23715738  0.95773376  0.61725847    -0.80000
C808        C  0.23916017  0.96717567  0.91069315     0.80000
N809        N  0.23783475  0.96075372  0.94255810    -0.78300
C810        C  0.20752782  0.95982214  0.96065214     0.82400
N811        N  0.17889582  0.96603532  0.94672435    -0.78300
C812        C  0.18025980  0.97318188  0.91509996     0.82500
N813        N  0.21037014  0.97359052  0.89729173    -0.80000
C814        C  0.50260676  0.74266815  0.65258867     0.80000
N815        N  0.49473328  0.70743900  0.66679077    -0.78300
C816        C  0.49576768  0.67739762  0.64987060     0.82400
N817        N  0.50426060  0.68273691  0.61832317    -0.78300
C818        C  0.51170985  0.71756271  0.60346748     0.82500
N819        N  0.51087928  0.74755314  0.62092918    -0.80000
C820        C  0.48644038  0.73859881  0.91472233     0.80000
N821        N  0.48177643  0.70469780  0.90004626    -0.78300
C822        C  0.48194195  0.67416302  0.91654712     0.82400
N823        N  0.48634331  0.67787177  0.94866898    -0.78300
C824        C  0.49060483  0.71165728  0.96394054     0.82500
N825        N  0.49096419  0.74204855  0.94670162    -0.80000
O826        O  0.38723516  0.49881037  0.74341471    -0.88400
C827        C  0.09988562  0.59115371  0.82693689     1.11600
O828        O  0.43946532  0.97222555  0.78029447    -1.36200
O829        O  0.07284659  0.59356800  0.74443124    -0.89900
O830        O  0.35681624  0.93667010  0.74579667    -0.90600
O831        O  0.44291261  0.92928090  0.71367543    -0.79400
O832        O  0.47770659  0.54696143  0.75040650    -1.01500
C833        C  0.05945442  0.97914414  0.72735817     1.21700
O834        O  0.48361746  0.93114650  0.78244643    -1.36400
Mn835      Mn  0.48082276  0.97332523  0.81643294     1.82100
O836        O  0.02736041  0.97671926  0.71717029    -0.78500
O837        O  0.10685210  0.55999199  0.74741017    -0.87900
C838        C  0.05508866  0.97970598  0.84354294     1.12800
C839        C  0.10129474  0.58735657  0.73530180     1.07500
O840        O  0.43811562  0.93021702  0.84898591    -0.79400
O841        O  0.02425287  0.51326937  0.78188072    -1.33100
O842        O  0.40353111  0.89211376  0.81055593    -0.98600
C843        C  0.48804274  0.85621577  0.73684264     1.06200
Mn844      Mn  0.08138464  0.51638271  0.78308915     1.48600
O845        O  0.45346176  0.85137270  0.74419233    -0.87800
Mn846      Mn  0.38242873  0.91800961  0.78045773     1.49600
O847        O  0.38606469  0.50016387  0.81440952    -0.91700
C848        C  0.47898206  0.54111214  0.72207381     1.19400
C849        C  0.36103016  0.97132641  0.82436146     1.11400
Mn850      Mn  0.48389832  0.97254462  0.74688206     1.81000
O851        O  0.06168362  0.97998266  0.81521106    -0.96800
Mn852      Mn  0.43129470  0.52081528  0.77947370     1.49300
C853        C  0.36202088  0.96943428  0.73380201     1.08000
Mn854      Mn  0.04085396  0.93416909  0.78519285     1.49900
C855        C  0.48382244  0.85526627  0.82835433     1.10900
O856        O  0.40482201  0.89349301  0.75108750    -1.02600
O857        O  0.10570975  0.56223086  0.81834726    -0.92300
C858        C  0.41055757  0.89868156  0.72263955     1.22200
O859        O  0.06350299  0.97998194  0.75600000    -1.03000
O860        O  0.07237420  0.59660127  0.81504518    -0.90400
O861        O  0.02318337  0.88970879  0.82048087    -0.90000
O862        O  0.35692594  0.93719784  0.81609951    -0.90100
Mn863      Mn  0.02810617  0.57082445  0.78002559     1.47900
O864        O  0.02214644  0.97711314  0.85188404    -0.78500
C865        C  0.40858418  0.89728020  0.83948839     1.15200
O866        O  0.48075023  0.51027652  0.71373006    -0.77300
O867        O  0.47604342  0.51283960  0.84870719    -0.76900
Mn868      Mn  0.43122079  0.87305199  0.77996956     1.51100
O869        O  0.02540017  0.88954375  0.74923299    -0.89200
O870        O  0.47598707  0.54729806  0.80970497    -0.96800
O871        O  0.45101673  0.84795756  0.81480694    -0.91800
C872        C  0.47509882  0.54335429  0.83838082     1.13000
C873        C  0.47345373  0.57439813  0.85933958    -0.00400
C874        C  0.48224347  0.57616390  0.89192321    -0.12300
C875        C  0.48432728  0.60738532  0.91156490     0.01800
C876        C  0.47727865  0.63776886  0.89863369    -0.00500
C877        C  0.46658988  0.63449763  0.86637789    -0.12200
C878        C  0.46487192  0.60390197  0.84685888     0.01700
H879        H  0.48864940  0.55373833  0.90197014     0.14700
H880        H  0.45999863  0.65652285  0.85578933     0.14700
C881        C  0.45463412  0.60455925  0.81391235     0.36400
C882        C  0.49468014  0.60750537  0.94450000     0.36300
N883        N  0.44660638  0.60568638  0.78759109    -0.44000
N884        N  0.50290991  0.60687479  0.97084902    -0.44000
C885        C  0.48430417  0.77001754  0.89558185    -0.00400
C886        C  0.45417210  0.75679324  0.87219042    -0.12300
C887        C  0.45263271  0.78405995  0.85092842     0.01800
C888        C  0.48204880  0.82602477  0.85259953    -0.00500
C889        C  0.02758908  0.84647523  0.87293521    -0.12200
C890        C  0.03270430  0.82068429  0.89383701     0.01700
H891        H  0.43208260  0.72458314  0.87003206     0.14700
H892        H  0.05220482  0.87755806  0.87026774     0.14700
C893        C  0.07057924  0.83639617  0.91085084     0.36400
C894        C  0.42208947  0.76717242  0.82635906     0.36300
N895        N  0.10105008  0.84899737  0.92433836    -0.44000
N896        N  0.39757030  0.75316620  0.80673301    -0.44000
C897        C  0.47888332  0.57079972  0.69942007    -0.00400
C898        C  0.45526340  0.58853657  0.70731708    -0.12300
C899        C  0.45899744  0.62198632  0.69073305     0.01800
C900        C  0.48745877  0.63904648  0.66569305    -0.00500
C901        C  0.01409474  0.62373429  0.65737334    -0.12200
C902        C  0.00986280  0.58947226  0.67357054     0.01700
H903        H  0.43420551  0.57664281  0.72708655     0.14700
H904        H  0.03568134  0.63635270  0.63794595     0.14700
C905        C  0.03457222  0.57225234  0.66389141     0.36400
C906        C  0.43275913  0.63768615  0.69987284     0.36300
N907        N  0.05444472  0.55849436  0.65617414    -0.44000
N908        N  0.41148608  0.64991066  0.70732862    -0.44000
C909        C  0.49006574  0.82828313  0.71267105    -0.00400
C910        C  0.02573785  0.84576208  0.69234474    -0.12300
C911        C  0.02907466  0.81894707  0.67090097     0.01800
C912        C  0.49863841  0.77366744  0.67130466    -0.00500
C913        C  0.46175082  0.76168954  0.68693804    -0.12200
C914        C  0.45687349  0.78848856  0.70701646     0.01700
H915        H  0.04802397  0.87796061  0.69158150     0.14700
H916        H  0.43656965  0.73098860  0.68354743     0.14700
C917        C  0.41764212  0.77337571  0.72200855     0.36400
C918        C  0.06218344  0.83539989  0.64836522     0.36300
N919        N  0.38595190  0.76101167  0.73360829    -0.44000
N920        N  0.08865601  0.84878436  0.63021070    -0.44000
C921        C  0.51644964  0.72120361  0.56804140    -0.00400
C922        C  0.51524949  0.75348971  0.55281210    -0.12300
C923        C  0.51415769  0.75571258  0.51957652     0.01800
C924        C  0.49478544  0.71512899  0.99913680    -0.00500
C925        C  0.02243039  0.69761459  0.51679799    -0.12200
C926        C  0.02474784  0.69684416  0.54995188     0.01700
H927        H  0.51376450  0.77675846  0.56693258     0.14700
H928        H  0.03323775  0.67901148  0.00171646     0.14700
C929        C  0.03497269  0.66822496  0.56341406     0.36400
C930        C  0.51165880  0.78948199  0.50651441     0.36300
N931        N  0.04306121  0.64496995  0.57369556    -0.44000
N932        N  0.44796265  0.77608596  0.99272793    -0.44000
C933        C  0.27232646  0.96896913  0.89040229    -0.00400
C934        C  0.29322236  0.49746431  0.87414574    -0.09400
C935        C  0.32206849  0.49937255  0.85247482     0.01800
C936        C  0.33185491  0.97192189  0.84765908    -0.00500
C937        C  0.31947647  0.94600118  0.87414948    -0.12200
C938        C  0.29033619  0.94464079  0.89565473     0.01700
H939        H  0.28566854  0.52146609  0.87431811     0.14700
H940        H  0.33249105  0.92665993  0.87798941     0.14700
C941        C  0.27844110  0.91682958  0.92204125     0.36400
C942        C  0.33959867  0.53340153  0.83085813     0.36300
N943        N  0.26901969  0.89456406  0.94321232    -0.44000
N944        N  0.35338464  0.56077945  0.81365442    -0.44000
C945        C  0.08637645  0.98305623  0.86616765    -0.00400
C946        C  0.12674590  0.49609520  0.85282080    -0.12300
C947        C  0.15791555  0.49610280  0.87014350     0.01800
C948        C  0.14889790  0.97989156  0.89996794    -0.00500
C949        C  0.10823588  0.95770598  0.91043850    -0.12200
C950        C  0.07701700  0.95940797  0.89394525     0.01700
H951        H  0.13416048  0.51237283  0.83043581     0.14700
H952        H  0.10051547  0.93755119  0.93067451     0.14700
C953        C  0.03558006  0.93458988  0.90467685     0.36400
C954        C  0.19899232  0.52063016  0.85845542     0.36300
N955        N  0.00232879  0.91466970  0.91322887    -0.44000
N956        N  0.23172915  0.54072081  0.84889962    -0.44000
C957        C  0.33075677  0.96601074  0.71112249    -0.00400
C958        C  0.34195149  0.48968600  0.68632879    -0.12300
C959        C  0.31386445  0.48946732  0.66471624     0.01800
C960        C  0.27054967  0.96027249  0.66859010    -0.00500
C961        C  0.25954373  0.93842086  0.69713327    -0.12200
C962        C  0.28896167  0.94109928  0.71832488     0.01700
H963        H  0.37374326  0.51313419  0.68458076     0.14700
H964        H  0.22760391  0.91985795  0.70333677     0.14700
C965        C  0.27529771  0.92012533  0.74835316     0.36400
C966        C  0.32798799  0.52165947  0.64158498     0.36300
N967        N  0.26436485  0.90359201  0.77247742    -0.44000
N968        N  0.33934665  0.54765937  0.62319454    -0.44000
C969        C  0.14746321  0.97065395  0.66689809    -0.00400
C970        C  0.15641243  0.98291353  0.69877981    -0.12300
C971        C  0.12883429  0.98654161  0.71841814     0.01800
C972        C  0.09089842  0.97888563  0.70624917    -0.00500
C973        C  0.08235258  0.96834676  0.67396019    -0.12200
C974        C  0.10996370  0.96383727  0.65432417     0.01700
H975        H  0.18513587  0.98915993  0.70895737     0.14700
H976        H  0.05342892  0.96216997  0.66426518     0.14700
C977        C  0.09800358  0.95065811  0.62194622     0.36400
C978        C  0.14065900  0.99725643  0.75123344     0.36300
N979        N  0.08817909  0.94000486  0.59602837    -0.44000
N980        N  0.11046083  0.42988679  0.77547907    -0.44000
C981        C  0.20675896  0.95789164  0.56542181    -0.00400
C982        C  0.19239565  0.98057751  0.54951956    -0.12300
C983        C  0.20440804  0.49595492  0.51575485     0.01800
C984        C  0.20784607  0.95623392  0.99571293    -0.00500
C985        C  0.22183586  0.93834152  0.51406656    -0.12200
C986        C  0.22096191  0.93599958  0.54732775     0.01700
H987        H  0.19438315  0.51069819  0.56306478     0.14700
H988        H  0.27333257  0.98933121  0.99783398     0.14700
C989        C  0.23283591  0.90928240  0.56202374     0.36400
C990        C  0.19334422  0.52385891  0.50207616     0.36300
N991        N  0.24205315  0.88753960  0.57363867    -0.44000
N992        N  0.17389187  0.53346326  0.98902367    -0.44000
C993        C  0.31549604  0.80439531  0.89786409    -0.00400
C994        C  0.32120598  0.79599678  0.86648187    -0.12300
C995        C  0.35195911  0.82516978  0.84771020     0.01800
C996        C  0.37881068  0.86454592  0.86033615    -0.00500
C997        C  0.37443159  0.87270140  0.89218336    -0.12200
C998        C  0.34297083  0.84311551  0.91100006     0.01700
H999        H  0.30117586  0.76629134  0.85618355     0.14700
H1000       H  0.39455806  0.90263620  0.90203509     0.14700
C1001       C  0.33884782  0.85423814  0.94305655     0.36400
C1002       C  0.35385365  0.81326568  0.81525498     0.36300
N1003       N  0.33583665  0.86346799  0.96874500    -0.44000
N1004       N  0.35483013  0.80374415  0.78922539    -0.44000
C1005       C  0.12725927  0.62108946  0.85101542    -0.00400
C1006       C  0.14322498  0.60845151  0.87567768    -0.12300
C1007       C  0.17104770  0.63665334  0.89758860     0.01800
C1008       C  0.18391657  0.67840498  0.89462201    -0.00500
C1009       C  0.16741658  0.69087951  0.87043207    -0.12200
C1010       C  0.13916045  0.66286136  0.84894510     0.01700
H1011       H  0.13430282  0.57658654  0.87764609     0.14700
H1012       H  0.17732117  0.72294592  0.86792673     0.14700
C1013       C  0.12480399  0.67847519  0.82396961     0.36400
C1014       C  0.18773281  0.62239192  0.92170372     0.36300
N1015       N  0.11324330  0.69093690  0.80399590    -0.44000
N1016       N  0.20122827  0.61109339  0.94105683    -0.44000
C1017       C  0.31631599  0.80481228  0.66540034    -0.00400
C1018       C  0.35722265  0.82095400  0.65624964    -0.12300
C1019       C  0.38880720  0.85287945  0.67362367     0.01800
C1020       C  0.37940256  0.86889761  0.70061953    -0.00500
C1021       C  0.33844312  0.85333973  0.70897579    -0.12200
C1022       C  0.30710823  0.82244399  0.69136038     0.01700
H1023       H  0.36458672  0.80764158  0.63623989     0.14700
H1024       H  0.33064635  0.86499068  0.72977363     0.14700
C1025       C  0.26569185  0.81030319  0.69994351     0.36400
C1026       C  0.43040949  0.86655647  0.66469558     0.36300
N1027       N  0.23255067  0.80086913  0.70663660    -0.44000
N1028       N  0.46375444  0.87740326  0.65758384    -0.44000
C1029       C  0.13033958  0.61460162  0.71049991    -0.00400
C1030       C  0.12558121  0.64658981  0.69854604    -0.12300
C1031       C  0.15451472  0.67591384  0.67817212     0.01800
C1032       C  0.18921382  0.67385514  0.66949887    -0.00500
C1033       C  0.19340479  0.64128362  0.67990169    -0.12200
C1034       C  0.16437402  0.61153990  0.69999048     0.01700
H1035       H  0.09961874  0.64942816  0.70565003     0.14700
H1036       H  0.21997784  0.63951310  0.67272376     0.14700
C1037       C  0.17131284  0.57906611  0.70963156     0.36400
C1038       C  0.14839312  0.70830723  0.66693815     0.36300
N1039       N  0.17725484  0.55325397  0.71721833    -0.44000
N1040       N  0.14336126  0.73416475  0.65787670    -0.44000
C1041       C  0.24963738  0.73346977  0.56622432    -0.00400
C1042       C  0.28624873  0.75114268  0.54906781    -0.12300
C1043       C  0.28645057  0.75236549  0.51587446     0.01800
C1044       C  0.24828256  0.73831423  0.99818893    -0.00500
C1045       C  0.21260666  0.71739856  0.51625151    -0.12200
C1046       C  0.21242786  0.71619517  0.54943936     0.01700
H1047       H  0.31493421  0.76394277  0.56165114     0.14700
H1048       H  0.18275205  0.70684588  0.00000653     0.14700
C1049       C  0.17360680  0.69903794  0.56543881     0.36400
C1050       C  0.32534506  0.76989787  0.49991136     0.36300
N1051       N  0.14246452  0.68532951  0.57818620    -0.44000
N1052       N  0.35655999  0.78398290  0.48722320    -0.44000
C1053       C  0.72243179  0.21038494  0.15186402     0.80000
N1054       N  0.72082993  0.20940796  0.11967524    -0.78300
C1055       C  0.75259616  0.23798400  0.10237873     0.82400
N1056       N  0.78609926  0.26743036  0.11765226    -0.78300
C1057       C  0.78789323  0.26826340  0.14990393     0.82500
N1058       N  0.75594233  0.23962431  0.16675557    -0.80000
C1059       C  0.70744677  0.21863342  0.41548428     0.80000
N1060       N  0.73836115  0.25011910  0.39976066    -0.78300
C1061       C  0.76987602  0.28080050  0.41589042     0.82400
N1062       N  0.76993075  0.27958052  0.44804425    -0.78300
C1063       C  0.73919718  0.24828244  0.46410020     0.82500
N1064       N  0.70794149  0.21769056  0.44769302    -0.80000
C1065       C  0.73992657  0.46026294  0.14841037     0.80000
N1066       N  0.70920984  0.46137329  0.16390075    -0.78300
C1067       C  0.67964926  0.46390388  0.14777311     0.82400
N1068       N  0.68127666  0.46495530  0.11549687    -0.78300
C1069       C  0.71204372  0.46383670  0.09952960     0.82500
N1070       N  0.74138657  0.46160609  0.11625112    -0.80000
C1071       C  0.74021615  0.47331694  0.41184757     0.80000
N1072       N  0.74305775  0.47479584  0.44417322    -0.78300
C1073       C  0.71616132  0.48026580  0.46221848     0.82400
N1074       N  0.68632209  0.48399261  0.44767312    -0.78300
C1075       C  0.68367764  0.48326341  0.41560424     0.82500
N1076       N  0.71042149  0.47764677  0.39806198    -0.80000
C1077       C  0.00032002  0.24313007  0.15540798     0.80000
N1078       N  0.99427373  0.20822987  0.16924301    -0.78300
C1079       C  0.99474884  0.17827280  0.15178372     0.82400
N1080       N  0.00119883  0.18336539  0.12000535    -0.78300
C1081       C  0.00708433  0.21784719  0.10546136     0.82500
N1082       N  0.00642105  0.24765227  0.12339130    -0.80000
C1083       C  0.00480829  0.24801711  0.41349803     0.80000
N1084       N  0.00161654  0.21502198  0.39831686    -0.78300
C1085       C  0.99978142  0.18338125  0.41453670     0.82400
N1086       N  0.00128232  0.18530221  0.44671910    -0.78300
C1087       C  0.00449948  0.21821120  0.46253075     0.82500
N1088       N  0.00571592  0.24939082  0.44577909    -0.80000
O1089       O  0.88867173  0.00097568  0.24490562    -0.88400
C1090       C  0.59420700  0.09596615  0.32862017     1.11600
O1091       O  0.93712668  0.47138081  0.28246514    -1.36200
O1092       O  0.57014406  0.09814813  0.24434093    -0.89900
O1093       O  0.85573388  0.43087200  0.24592870    -0.90600
O1094       O  0.94241468  0.42912590  0.21684321    -0.79400
O1095       O  0.97937023  0.04723077  0.25080806    -1.01500
C1096       C  0.55980920  0.47872532  0.22550712     1.21700
O1097       O  0.98394168  0.43362179  0.28496730    -1.36400
Mn1098     Mn  0.97960932  0.47507282  0.31849560     1.82100
O1099       O  0.52798625  0.47675576  0.21505782    -0.78500
O1100       O  0.60583666  0.06659852  0.24980504    -0.87900
C1101       C  0.55689033  0.48289625  0.34171536     1.12800
C1102       C  0.60012560  0.09347067  0.23699468     1.07500
O1103       O  0.93681895  0.43221891  0.35154602    -0.79400
O1104       O  0.52242602  0.01676822  0.28203018    -1.33100
O1105       O  0.90496816  0.39462232  0.31312334    -0.98600
C1106       C  0.99041965  0.35893369  0.24115132     1.06200
Mn1107     Mn  0.58034174  0.02242842  0.28483868     1.48600
O1108       O  0.95608487  0.35052040  0.25266724    -0.87800
Mn1109     Mn  0.88188639  0.41501838  0.28246725     1.49600
O1110       O  0.88890304  0.00291912  0.31590801    -0.91700
C1111       C  0.98008510  0.04145982  0.22247528     1.19400
C1112       C  0.85712029  0.46686443  0.32597855     1.11400
Mn1113     Mn  0.98203146  0.47358569  0.24913126     1.81000
O1114       O  0.56292328  0.48242084  0.31333702    -0.96800
Mn1115     Mn  0.93352706  0.02236831  0.28040056     1.49300
C1116       C  0.85901834  0.46334160  0.23467350     1.08000
Mn1117     Mn  0.54173231  0.43633129  0.28369517     1.49900
C1118       C  0.98989292  0.36191022  0.33213798     1.10900
O1119       O  0.90582743  0.39108630  0.25424159    -1.02600
O1120       O  0.60152050  0.06777570  0.32065916    -0.92300
C1121       C  0.91238319  0.39642652  0.22578294     1.22200
O1122       O  0.56412118  0.48119846  0.25411755    -1.03000
O1123       O  0.56719634  0.10065405  0.31496930    -0.90400
O1124       O  0.52465133  0.39274809  0.31873594    -0.90000
O1125       O  0.85360531  0.43321941  0.31689487    -0.90100
Mn1126     Mn  0.52422615  0.07342872  0.27921083     1.47900
O1127       O  0.52392645  0.48000276  0.35027218    -0.78500
C1128       C  0.90706683  0.39978867  0.34154885     1.15200
O1129       O  0.98167746  0.01054865  0.21400415    -0.77300
O1130       O  0.97909470  0.01457677  0.34924824    -0.76900
Mn1131     Mn  0.93270129  0.37461943  0.28591651     1.51100
O1132       O  0.52569208  0.39150570  0.24822552    -0.89200
O1133       O  0.97934779  0.04807850  0.30967793    -0.96800
O1134       O  0.95461059  0.35430954  0.32360714    -0.91800
C1135       C  0.98008767  0.04580732  0.33832576     1.13000
C1136       C  0.98430036  0.08033261  0.35823588    -0.00400
C1137       C  0.98388580  0.07792337  0.39154141    -0.12300
C1138       C  0.98881497  0.11060908  0.41072686     0.01800
C1139       C  0.99482072  0.14707905  0.39651518    -0.00500
C1140       C  0.99530380  0.14916099  0.36322020    -0.12200
C1141       C  0.98992016  0.11675462  0.34419596     0.01700
H1142       H  0.97957677  0.05035861  0.40269547     0.14700
H1143       H  0.99983322  0.17648714  0.35149693     0.14700
C1144       C  0.99066313  0.12279440  0.31022179     0.36400
C1145       C  0.98708572  0.10516753  0.44470922     0.36300
N1146       N  0.99129707  0.12813621  0.28312499    -0.44000
N1147       N  0.98556156  0.10027216  0.47190900    -0.44000
C1148       C  0.00420628  0.28037691  0.39454148    -0.00400
C1149       C  0.97767758  0.29440683  0.40327832    -0.12300
C1150       C  0.97194536  0.32072920  0.38347487     0.01800
C1151       C  0.99429113  0.33476844  0.35492971    -0.00500
C1152       C  0.52177065  0.32143754  0.34351897    -0.12200
C1153       C  0.52747586  0.29521789  0.36314016     0.01700
H1154       H  0.96004603  0.28338544  0.42500032     0.14700
H1155       H  0.53644612  0.32926018  0.32039792     0.14700
C1156       C  0.55362742  0.28036576  0.35177867     0.36400
C1157       C  0.94335064  0.33285725  0.39350982     0.36300
N1158       N  0.57454570  0.26854840  0.34246542    -0.44000
N1159       N  0.92033351  0.34191979  0.40284344    -0.44000
C1160       C  0.97988331  0.07154992  0.20021230    -0.00400
C1161       C  0.95568985  0.08861669  0.20833668    -0.12300
C1162       C  0.95866663  0.12187804  0.19192446     0.01800
C1163       C  0.98750284  0.14005484  0.16728186    -0.00500
C1164       C  0.51332185  0.12356332  0.15590002    -0.12200
C1165       C  0.50819897  0.08906590  0.17220672     0.01700
H1166       H  0.93467970  0.07632873  0.22815346     0.14700
H1167       H  0.53616007  0.13676386  0.13741409     0.14700
C1168       C  0.53327028  0.07187778  0.16349497     0.36400
C1169       C  0.93073826  0.13576010  0.20038307     0.36300
N1170       N  0.55335922  0.05808926  0.15651421    -0.44000
N1171       N  0.90779007  0.14616641  0.20713886    -0.44000
C1172       C  0.99162483  0.32976740  0.21792361    -0.00400
C1173       C  0.52059194  0.34676887  0.18869640    -0.12300
C1174       C  0.52451328  0.31990998  0.16751161     0.01800
C1175       C  0.99732108  0.27420218  0.17539060    -0.00500
C1176       C  0.96937924  0.26030013  0.20066625    -0.12200
C1177       C  0.96614272  0.28726479  0.22162744     0.01700
H1178       H  0.53740772  0.37924679  0.18420011     0.14700
H1179       H  0.94990817  0.22787674  0.20430059     0.14700
C1180       C  0.93775268  0.27012845  0.24775438     0.36400
C1181       C  0.55202493  0.33705113  0.14094318     0.36300
N1182       N  0.91506117  0.25641837  0.26869297    -0.44000
N1183       N  0.57425852  0.35100068  0.11975443    -0.44000
C1184       C  0.01027691  0.22104771  0.06997742    -0.00400
C1185       C  0.00080477  0.24791027  0.05438058    -0.12300
C1186       C  0.99846637  0.24851337  0.02107989     0.01800
C1187       C  0.00317801  0.21785323  0.49777323    -0.00500
C1188       C  0.52421634  0.19824946  0.01593841    -0.12200
C1189       C  0.52628879  0.19780172  0.04913384     0.01700
H1190       H  0.99371696  0.26778627  0.06830480     0.14700
H1191       H  0.52609203  0.17736747  0.49926587     0.14700
C1192       C  0.53597577  0.16889043  0.06281083     0.36400
C1193       C  0.98720437  0.27625115  0.00738927     0.36300
N1194       N  0.54378272  0.14546604  0.07316424    -0.44000
N1195       N  0.06972668  0.32484827  0.49191945    -0.44000
C1196       C  0.77029784  0.46982931  0.39084479    -0.00400
C1197       C  0.79370548  0.99861396  0.37454438    -0.09400
C1198       C  0.82473934  0.00219771  0.35440096     0.01800
C1199       C  0.82666402  0.46650513  0.34812074    -0.00500
C1200       C  0.82416158  0.45385601  0.37973124    -0.12200
C1201       C  0.79638583  0.45551889  0.40115315     0.01700
H1202       H  0.78680578  0.02304680  0.37558363     0.14700
H1203       H  0.84430796  0.44331891  0.38779381     0.14700
C1204       C  0.79494688  0.44169903  0.43321164     0.36400
C1205       C  0.84601506  0.03887052  0.33574185     0.36300
N1206       N  0.79368685  0.43068201  0.45897980    -0.44000
N1207       N  0.86308252  0.06839306  0.32096663    -0.44000
C1208       C  0.58906302  0.48801288  0.36407607    -0.00400
C1209       C  0.62530567  0.00004784  0.35349428    -0.12300
C1210       C  0.65578758  0.99683352  0.36915761     0.01800
C1211       C  0.65236392  0.48888679  0.39947444    -0.00500
C1212       C  0.61287651  0.47142669  0.41223431    -0.12200
C1213       C  0.58129421  0.47137385  0.39493582     0.01700
H1214       H  0.63293023  0.01758793  0.33170783     0.14700
H1215       H  0.60634856  0.45654441  0.43514063     0.14700
C1216       C  0.54133706  0.45318250  0.40900170     0.36400
C1217       C  0.69642383  0.01892535  0.35615537     0.36300
N1218       N  0.50950678  0.43924884  0.42061668    -0.44000
N1219       N  0.72879450  0.03679064  0.34542780    -0.44000
C1220       C  0.82993155  0.46011864  0.20957847    -0.00400
C1221       C  0.84277731  0.98867934  0.18610607    -0.12300
C1222       C  0.81429048  0.98697161  0.16404422     0.01800
C1223       C  0.77237468  0.45962823  0.16687720    -0.00500
C1224       C  0.76326142  0.42462769  0.18404834    -0.12200
C1225       C  0.79157151  0.42435160  0.20509803     0.01700
H1226       H  0.87487564  0.01029486  0.18268369     0.14700
H1227       H  0.73349711  0.39777308  0.18162027     0.14700
C1228       C  0.77913778  0.38747579  0.22285362     0.36400
C1229       C  0.82862268  0.01492343  0.13768674     0.36300
N1230       N  0.76914482  0.35791959  0.23705835    -0.44000
N1231       N  0.84015391  0.03732154  0.11653944    -0.44000
C1232       C  0.64703613  0.46649593  0.16606241    -0.00400
C1233       C  0.64623345  0.46149793  0.19913695    -0.12300
C1234       C  0.61865028  0.46552993  0.21853979     0.01800
C1235       C  0.58973952  0.47439618  0.20512385    -0.00500
C1236       C  0.58954519  0.47845108  0.17195063    -0.12200
C1237       C  0.61786525  0.47486697  0.15241716     0.01700
H1238       H  0.66767033  0.45462292  0.21038155     0.14700
H1239       H  0.56761676  0.48504627  0.16124726     0.14700
C1240       C  0.61640924  0.48081107  0.11872129     0.36400
C1241       C  0.62135118  0.46007359  0.25226159     0.36300
N1242       N  0.61504475  0.48573977  0.09174246    -0.44000
N1243       N  0.62883701  0.96108821  0.28075142    -0.44000
C1244       C  0.71290659  0.46449616  0.06416053    -0.00400
C1245       C  0.67618440  0.45131610  0.04794934    -0.12300
C1246       C  0.70023242  0.99143218  0.01747073     0.01800
C1247       C  0.71945140  0.48274400  0.49747500    -0.00500
C1248       C  0.74745377  0.47805488  0.01285538    -0.12200
C1249       C  0.74896014  0.47781027  0.04612977     0.01700
H1250       H  0.68969175  0.00536842  0.06482688     0.14700
H1251       H  0.74379492  0.44222332  0.49979855     0.14700
C1252       C  0.78827659  0.49295476  0.06078817     0.36400
C1253       C  0.68753953  0.01826221  0.00415386     0.36300
N1254       N  0.81989968  0.50513174  0.07233923    -0.44000
N1255       N  0.63769516  0.99589682  0.49084533    -0.44000
C1256       C  0.80564227  0.31263907  0.39819799    -0.00400
C1257       C  0.81316058  0.30231362  0.36796085    -0.12300
C1258       C  0.84680169  0.32941801  0.35016267     0.01800
C1259       C  0.87363279  0.36921716  0.36183009    -0.00500
C1260       C  0.86656796  0.37975412  0.39229178    -0.12200
C1261       C  0.83337076  0.35167028  0.41073784     0.01700
H1262       H  0.79327433  0.27216774  0.35835861     0.14700
H1263       H  0.88698770  0.40982803  0.40172880     0.14700
C1264       C  0.82890511  0.36378742  0.44236589     0.36400
C1265       C  0.85340287  0.31422054  0.32050034     0.36300
N1266       N  0.82574935  0.37324248  0.46794186    -0.44000
N1267       N  0.85831159  0.30132499  0.29698535    -0.44000
C1268       C  0.61908773  0.12563686  0.35413196    -0.00400
C1269       C  0.64454861  0.11749431  0.37319604    -0.12300
C1270       C  0.67180582  0.14652099  0.39485890     0.01800
C1271       C  0.67472518  0.18492472  0.39722798    -0.00500
C1272       C  0.64810955  0.19251824  0.37969639    -0.12200
C1273       C  0.61985041  0.16320677  0.35883792     0.01700
H1274       H  0.64383742  0.08868459  0.37078505     0.14700
H1275       H  0.64986998  0.22185662  0.38197917     0.14700
C1276       C  0.59311506  0.17358538  0.34221116     0.36400
C1277       C  0.69767187  0.13688751  0.41346402     0.36300
N1278       N  0.57163269  0.18199331  0.32911046    -0.44000
N1279       N  0.71827907  0.12912654  0.42851378    -0.44000
C1280       C  0.82370899  0.30041656  0.16697363    -0.00400
C1281       C  0.84328901  0.34063642  0.15561409    -0.12300
C1282       C  0.87363604  0.37267656  0.17362959     0.01800
C1283       C  0.88490540  0.36436849  0.20336767    -0.00500
C1284       C  0.86705794  0.32392924  0.21358281    -0.12200
C1285       C  0.83683125  0.29213971  0.19588838     0.01700
H1286       H  0.83351063  0.34733857  0.13343746     0.14700
H1287       H  0.87636192  0.31711382  0.23587576     0.14700
C1288       C  0.82001680  0.25135967  0.20818904     0.36400
C1289       C  0.89067842  0.41377605  0.16205185     0.36300
N1290       N  0.80665558  0.21882796  0.21827189    -0.44000
N1291       N  0.90430457  0.44671595  0.15277543    -0.44000
C1292       C  0.63067627  0.12135997  0.21327066    -0.00400
C1293       C  0.62277378  0.14833746  0.19595572    -0.12300
C1294       C  0.65179042  0.17688017  0.17505149     0.01800
C1295       C  0.68939384  0.17861855  0.17094988    -0.00500
C1296       C  0.69749994  0.15192947  0.18783805    -0.12200
C1297       C  0.66893784  0.12361981  0.20890732     0.01700
H1298       H  0.59427217  0.14792553  0.19926846     0.14700
H1299       H  0.72688167  0.15396080  0.18511073     0.14700
C1300       C  0.68127225  0.09920140  0.22675239     0.36400
C1301       C  0.64346586  0.20584017  0.15972635     0.36300
N1302       N  0.69143380  0.07994684  0.24113087    -0.44000
N1303       N  0.63699556  0.22935390  0.14772324    -0.44000
C1304       C  0.75153460  0.23622194  0.06715474    -0.00400
C1305       C  0.78798302  0.24864197  0.05044604    -0.12300
C1306       C  0.78859019  0.24746213  0.01719718     0.01800
C1307       C  0.73995785  0.24739116  0.49920535    -0.00500
C1308       C  0.71565229  0.22080845  0.01661989    -0.12200
C1309       C  0.71505559  0.22213637  0.04982991     0.01700
H1310       H  0.81608680  0.25888826  0.06339981     0.14700
H1311       H  0.67464598  0.21834265  0.50290515     0.14700
C1312       C  0.67684036  0.21088488  0.06520608     0.36400
C1313       C  0.82684718  0.25930272  0.00152072     0.36300
N1314       N  0.64609727  0.20191640  0.07731920    -0.44000
N1315       N  0.85747505  0.26871575  0.98898926    -0.44000
C1316       C  0.71226316  0.21252591  0.64999635     0.80000
N1317       N  0.71016119  0.21371539  0.61793300    -0.78300
C1318       C  0.74006292  0.24537869  0.60148877     0.82400
N1319       N  0.77204625  0.27584617  0.61746666    -0.78300
C1320       C  0.77387457  0.27500679  0.64965113     0.82500
N1321       N  0.74413710  0.24292958  0.66564141    -0.80000
C1322       C  0.71787015  0.20935134  0.91599628     0.80000
N1323       N  0.74887439  0.24151090  0.90107083    -0.78300
C1324       C  0.78126366  0.27048106  0.91747199     0.82400
N1325       N  0.78232546  0.26716026  0.94939823    -0.78300
C1326       C  0.75145271  0.23529288  0.96488661     0.82500
N1327       N  0.71908925  0.20635459  0.94811225    -0.80000
C1328       C  0.75016144  0.47979979  0.64904854     0.80000
N1329       N  0.71779129  0.47805752  0.66408924    -0.78300
C1330       C  0.68748676  0.47891032  0.64783434     0.82400
N1331       N  0.68985779  0.48119454  0.61562246    -0.78300
C1332       C  0.72203222  0.48252416  0.59999578     0.82500
N1333       N  0.75227446  0.48196901  0.61686223    -0.80000
C1334       C  0.74323623  0.47348691  0.91204626     0.80000
N1335       N  0.74164346  0.46851587  0.94409541    -0.78300
C1336       C  0.71153710  0.46914104  0.96144619     0.82400
N1337       N  0.68329291  0.47496423  0.94636098    -0.78300
C1338       C  0.68473114  0.48012935  0.91441267     0.82500
N1339       N  0.71479437  0.47931995  0.89752340    -0.80000
C1340       C  0.98916661  0.23834704  0.64898780     0.80000
N1341       N  0.98360375  0.20443338  0.66403436    -0.78300
C1342       C  0.98409244  0.17378418  0.64770689     0.82400
N1343       N  0.98994315  0.17722159  0.61579616    -0.78300
C1344       C  0.99466775  0.21063712  0.60017706     0.82500
N1345       N  0.99463983  0.24143169  0.61697375    -0.80000
C1346       C  0.99043373  0.24156010  0.91790499     0.80000
N1347       N  0.98500466  0.20725308  0.90347512    -0.78300
C1348       C  0.98737685  0.17789333  0.91992425     0.82400
N1349       N  0.99463114  0.18304931  0.95176328    -0.78300
C1350       C  0.99975670  0.21731625  0.96691478     0.82500
N1351       N  0.99791234  0.24658163  0.94960869    -0.80000
O1352       O  0.88552865  0.99888631  0.74431004    -0.88400
C1353       C  0.59754339  0.09386777  0.82862407     1.11600
O1354       O  0.93964514  0.47184472  0.78141182    -1.36200
O1355       O  0.57172262  0.09731546  0.74691072    -0.89900
O1356       O  0.85710223  0.43779823  0.74632976    -0.90600
O1357       O  0.93968893  0.42729288  0.71463247    -0.79400
O1358       O  0.97543147  0.04972914  0.75192361    -1.01500
C1359       C  0.55673655  0.47123861  0.72584346     1.21700
O1360       O  0.98151831  0.42858466  0.78280489    -1.36400
Mn1361     Mn  0.98124408  0.47200589  0.81699350     1.82100
O1362       O  0.52521567  0.47004637  0.71556411    -0.78500
O1363       O  0.60601837  0.06384519  0.74774224    -0.87900
C1364       C  0.55402033  0.47510736  0.84179852     1.12800
C1365       C  0.59996115  0.09144461  0.73679071     1.07500
O1366       O  0.93821724  0.42994884  0.85033097    -0.79400
O1367       O  0.52398133  0.01580902  0.78222688    -1.33100
O1368       O  0.90224152  0.39259442  0.81216975    -0.98600
C1369       C  0.98159425  0.35216155  0.73653803     1.06200
Mn1370     Mn  0.58188420  0.02060380  0.78376546     1.48600
O1371       O  0.94770715  0.34748024  0.74576648    -0.87800
Mn1372     Mn  0.88163206  0.41870196  0.78176973     1.49600
O1373       O  0.88334680  0.99971443  0.81501933    -0.91700
C1374       C  0.97708266  0.04413293  0.72359115     1.19400
C1375       C  0.86331154  0.47389653  0.82636679     1.11400
Mn1376     Mn  0.98237524  0.47032616  0.74717256     1.81000
O1377       O  0.55914938  0.47405438  0.81341381    -0.96800
Mn1378     Mn  0.92915115  0.02223509  0.78078168     1.49300
C1379       C  0.86341268  0.47144974  0.73527189     1.08000
Mn1380     Mn  0.53722754  0.42760108  0.78443991     1.49900
C1381       C  0.98066610  0.35209276  0.82891143     1.10900
O1382       O  0.90267868  0.39278248  0.75285097    -1.02600
O1383       O  0.60482857  0.06645307  0.81870281    -0.92300
C1384       C  0.90730071  0.39729448  0.72429465     1.22200
O1385       O  0.56092059  0.47257823  0.75446868    -1.03000
O1386       O  0.56903724  0.09855530  0.81760915    -0.90400
O1387       O  0.51847355  0.38455134  0.82065014    -0.90000
O1388       O  0.85695860  0.43931711  0.81693779    -0.90100
Mn1389     Mn  0.52587852  0.07260918  0.78120377     1.47900
O1390       O  0.52147870  0.47292150  0.85077706    -0.78500
C1391       C  0.90767673  0.39757989  0.84105294     1.15200
O1392       O  0.98052527  0.01425195  0.71528866    -0.77300
O1393       O  0.97555341  0.01551976  0.84964186    -0.76900
Mn1394     Mn  0.92797581  0.37121062  0.78167996     1.51100
O1395       O  0.52043638  0.38198191  0.74943230    -0.89200
O1396       O  0.97347562  0.05074225  0.81158063    -0.96800
O1397       O  0.94723006  0.34538268  0.81678860    -0.91800
C1398       C  0.97336334  0.04570731  0.84021105     1.13000
C1399       C  0.97261463  0.07596880  0.86255343    -0.00400
C1400       C  0.99200085  0.08338744  0.89225198    -0.12300
C1401       C  0.99634716  0.11538066  0.91210413     0.01800
C1402       C  0.98072154  0.14058496  0.90240824    -0.00500
C1403       C  0.95943011  0.13142377  0.87349247    -0.12200
C1404       C  0.95546256  0.10002332  0.85366285     0.01700
H1405       H  0.00541046  0.06530043  0.89939276     0.14700
H1406       H  0.94617115  0.14945385  0.86582035     0.14700
C1407       C  0.93369470  0.09373682  0.82417597     0.36400
C1408       C  0.01870586  0.12250785  0.94130684     0.36300
N1409       N  0.91630870  0.08920418  0.80060973    -0.44000
N1410       N  0.03674771  0.12765154  0.96460561    -0.44000
C1411       C  0.98627047  0.27185331  0.89880202    -0.00400
C1412       C  0.95179521  0.25802956  0.87952328    -0.12300
C1413       C  0.94828740  0.28380811  0.85769862     0.01800
C1414       C  0.98034718  0.32456630  0.85430503    -0.00500
C1415       C  0.51833426  0.34259039  0.87566524    -0.12200
C1416       C  0.52255171  0.31704611  0.89737621     0.01700
H1417       H  0.92779259  0.22645902  0.88100499     0.14700
H1418       H  0.54163992  0.37442759  0.87474235     0.14700
C1419       C  0.55783303  0.33413000  0.91775136     0.36400
C1420       C  0.91245087  0.26633038  0.83794874     0.36300
N1421       N  0.58608952  0.34786967  0.93410348    -0.44000
N1422       N  0.88353258  0.25163385  0.82232670    -0.44000
C1423       C  0.97520660  0.07278604  0.70080773    -0.00400
C1424       C  0.95195768  0.09064365  0.70955798    -0.12300
C1425       C  0.95294321  0.12207961  0.69185344     0.01800
C1426       C  0.97824434  0.13704592  0.66475332    -0.00500
C1427       C  0.50840524  0.12057639  0.65402259    -0.12200
C1428       C  0.50582787  0.08768769  0.67125987     0.01700
H1429       H  0.93335490  0.08046735  0.73083340     0.14700
H1430       H  0.52816523  0.13172228  0.63343561     0.14700
C1431       C  0.52961974  0.06973243  0.66086715     0.36400
C1432       C  0.92719847  0.13790939  0.70212478     0.36300
N1433       N  0.54886978  0.05549261  0.65261976    -0.44000
N1434       N  0.90635845  0.15021749  0.71060473    -0.44000
C1435       C  0.98142895  0.32416771  0.71152866    -0.00400
C1436       C  0.52436789  0.34052254  0.69366759    -0.12300
C1437       C  0.52803256  0.31431354  0.67186323     0.01800
C1438       C  0.98599335  0.26972669  0.66764849    -0.00500
C1439       C  0.95153247  0.25704043  0.68679939    -0.12200
C1440       C  0.94875000  0.28360966  0.70842827     0.01700
H1441       H  0.54925531  0.37149733  0.69623166     0.14700
H1442       H  0.92692344  0.22574947  0.68533852     0.14700
C1443       C  0.91283300  0.26725690  0.72822615     0.36400
C1444       C  0.56514750  0.32937932  0.65377834     0.36300
N1445       N  0.88388953  0.25380030  0.74389156    -0.44000
N1446       N  0.59494958  0.34162546  0.63929991    -0.44000
C1447       C  0.99759311  0.21248282  0.56495433    -0.00400
C1448       C  0.02073420  0.25037080  0.54996209    -0.12300
C1449       C  0.02380440  0.25337349  0.51670303     0.01800
C1450       C  0.00558421  0.22149892  0.00225705    -0.00500
C1451       C  0.51765819  0.19618186  0.51296605    -0.12200
C1452       C  0.51771155  0.19388985  0.54612415     0.01700
H1453       H  0.03693408  0.27778774  0.56431931     0.14700
H1454       H  0.52878385  0.17649515  0.00244432     0.14700
C1455       C  0.52939495  0.16642173  0.55967443     0.36400
C1456       C  0.04925929  0.29300290  0.50286262     0.36300
N1457       N  0.53862436  0.14404441  0.57001049    -0.44000
N1458       N  0.97829724  0.29866310  0.99658864    -0.44000
C1459       C  0.77629317  0.47434581  0.89263401    -0.00400
C1460       C  0.77735599  0.98596727  0.86214894    -0.09400
C1461       C  0.80535870  0.98580937  0.84069682     0.01800
C1462       C  0.83488381  0.47541264  0.85003786    -0.00500
C1463       C  0.81624563  0.44460904  0.87306636    -0.12200
C1464       C  0.78700534  0.44376450  0.89417913     0.01700
H1465       H  0.76167886  0.00207784  0.85566896     0.14700
H1466       H  0.82385782  0.42067926  0.87412854     0.14700
C1467       C  0.76636127  0.40974608  0.91554528     0.36400
C1468       C  0.81110412  0.00626800  0.81062157     0.36300
N1469       N  0.74948443  0.38231062  0.93247906    -0.44000
N1470       N  0.81574091  0.02257475  0.78652194    -0.44000
C1471       C  0.58705615  0.48075160  0.86340240    -0.00400
C1472       C  0.62752299  0.00465098  0.85538859    -0.12300
C1473       C  0.65884854  0.00587108  0.87325717     0.01800
C1474       C  0.65249904  0.48416234  0.89782352    -0.00500
C1475       C  0.61304625  0.46570892  0.91090920    -0.12200
C1476       C  0.58038012  0.46387931  0.89404298     0.01700
H1477       H  0.63502056  0.02141837  0.83327758     0.14700
H1478       H  0.60714509  0.45076062  0.93368405     0.14700
C1479       C  0.54011941  0.44184880  0.90764273     0.36400
C1480       C  0.70019295  0.03272036  0.86299523     0.36300
N1481       N  0.50783525  0.42391475  0.91851416    -0.44000
N1482       N  0.73319029  0.05485389  0.85485189    -0.44000
C1483       C  0.83486852  0.47089633  0.71113444    -0.00400
C1484       C  0.83510964  0.99740660  0.69558152    -0.12300
C1485       C  0.80651444  0.99662985  0.67427097     0.01800
C1486       C  0.78057161  0.47591610  0.66814263    -0.00500
C1487       C  0.76615576  0.44552814  0.69142551    -0.12200
C1488       C  0.79264724  0.44266533  0.71276758     0.01700
H1489       H  0.85969354  0.02664836  0.70347127     0.14700
H1490       H  0.73370115  0.42440680  0.69345592     0.14700
C1491       C  0.77506040  0.41221161  0.73738282     0.36400
C1492       C  0.81064044  0.03470238  0.66388597     0.36300
N1493       N  0.76073028  0.38786292  0.75709350    -0.44000
N1494       N  0.81398369  0.06525080  0.65562344    -0.44000
C1495       C  0.65188791  0.47543188  0.66594786    -0.00400
C1496       C  0.64893159  0.46504296  0.69822613    -0.12300
C1497       C  0.61790038  0.46240550  0.71754940     0.01800
C1498       C  0.58825091  0.47068963  0.70498882    -0.00500
C1499       C  0.58997460  0.47965761  0.67245521    -0.12200
C1500       C  0.62125171  0.48195394  0.65287505     0.01700
H1501       H  0.67105245  0.45867266  0.70883691     0.14700
H1502       H  0.56727732  0.48556165  0.66237722     0.14700
C1503       C  0.62094905  0.49139034  0.61975270     0.36400
C1504       C  0.61757004  0.45043284  0.75018012     0.36300
N1505       N  0.62026014  0.49872342  0.59318573    -0.44000
N1506       N  0.64746160  0.99195678  0.77724718    -0.44000
C1507       C  0.72303311  0.48319062  0.56477979    -0.00400
C1508       C  0.70863336  0.50581771  0.54892284    -0.12300
C1509       C  0.67935505  0.96492590  0.51452863     0.01800
C1510       C  0.71075276  0.46565432  0.99669363    -0.00500
C1511       C  0.73453658  0.46064628  0.51338427    -0.12200
C1512       C  0.73636591  0.46057605  0.54665779     0.01700
H1513       H  0.66442025  0.97495979  0.56146850     0.14700
H1514       H  0.77552426  0.48913815  0.99946492     0.14700
C1515       C  0.74984600  0.43519303  0.56149226     0.36400
C1516       C  0.65623962  0.98208560  0.50127039     0.36300
N1517       N  0.76054332  0.41476471  0.57338024    -0.44000
N1518       N  0.67724253  0.03976594  0.99371373    -0.44000
C1519       C  0.81565991  0.30375723  0.89987247    -0.00400
C1520       C  0.82014988  0.29615691  0.86802154    -0.12300
C1521       C  0.85003311  0.32580435  0.84899302     0.01800
C1522       C  0.87773096  0.36480971  0.86191142    -0.00500
C1523       C  0.87431968  0.37230569  0.89413761    -0.12200
C1524       C  0.84332866  0.34231148  0.91312788     0.01700
H1525       H  0.79975215  0.26667505  0.85753100     0.14700
H1526       H  0.89483677  0.40200166  0.90419020     0.14700
C1527       C  0.83956900  0.35283813  0.94545853     0.36400
C1528       C  0.85009983  0.31460138  0.81601951     0.36300
N1529       N  0.83663530  0.36154305  0.97133580    -0.44000
N1530       N  0.84956198  0.30545314  0.78965486    -0.44000
C1531       C  0.62490377  0.12295534  0.85310456    -0.00400
C1532       C  0.63847786  0.10889355  0.87848717    -0.12300
C1533       C  0.66736246  0.13623413  0.90027523     0.01800
C1534       C  0.68344418  0.17855207  0.89666000    -0.00500
C1535       C  0.66925057  0.19240385  0.87164910    -0.12200
C1536       C  0.64033841  0.16524458  0.85006054     0.01700
H1537       H  0.62707296  0.07655165  0.88095426     0.14700
H1538       H  0.68167377  0.22483884  0.86842640     0.14700
C1539       C  0.62946817  0.18193241  0.82359475     0.36400
C1540       C  0.68203984  0.12030767  0.92467746     0.36300
N1541       N  0.62090724  0.19526115  0.80228364    -0.44000
N1542       N  0.69403002  0.10767451  0.94418293    -0.44000
C1543       C  0.80779447  0.30852797  0.66747000    -0.00400
C1544       C  0.84758944  0.32711580  0.65514083    -0.12300
C1545       C  0.88076634  0.35666207  0.67277519     0.01800
C1546       C  0.87413973  0.36843336  0.70307248    -0.00500
C1547       C  0.83418785  0.35041478  0.71488024    -0.12200
C1548       C  0.80127069  0.32108018  0.69750616     0.01700
H1549       H  0.85298918  0.31739805  0.63224565     0.14700
H1550       H  0.82850214  0.35906008  0.73812326     0.14700
C1551       C  0.76108414  0.30496681  0.71106570     0.36400
C1552       C  0.92129226  0.37208329  0.66031374     0.36300
N1553       N  0.72895373  0.29205429  0.72198695    -0.44000
N1554       N  0.95379813  0.38414315  0.65042336    -0.44000
C1555       C  0.62751287  0.11897283  0.71165749    -0.00400
C1556       C  0.61604427  0.14388989  0.69523486    -0.12300
C1557       C  0.64234810  0.17316160  0.67359118     0.01800
C1558       C  0.68110313  0.17810674  0.66816360    -0.00500
C1559       C  0.69237337  0.15274529  0.68355984    -0.12200
C1560       C  0.66613829  0.12324603  0.70507350     0.01700
H1561       H  0.58678053  0.14143085  0.69995102     0.14700
H1562       H  0.72254019  0.15702052  0.67952750     0.14700
C1563       C  0.68123820  0.10006320  0.72127717     0.36400
C1564       C  0.62989241  0.19946115  0.65894012     0.36300
N1565       N  0.69384010  0.08189916  0.73421372    -0.44000
N1566       N  0.61965747  0.22049794  0.64748450    -0.44000
C1567       C  0.73893134  0.24598345  0.56635400    -0.00400
C1568       C  0.77586104  0.26285014  0.54965072    -0.12300
C1569       C  0.77671992  0.26342877  0.51645321     0.01800
C1570       C  0.75210916  0.23377854  0.99996366    -0.00500
C1571       C  0.70300236  0.23041953  0.51586986    -0.12200
C1572       C  0.70214823  0.22960151  0.54909938     0.01700
H1573       H  0.80423974  0.27482905  0.56257205     0.14700
H1574       H  0.68764109  0.21090876  0.00361041     0.14700
C1575       C  0.66315434  0.21307991  0.56465750     0.36400
C1576       C  0.81566438  0.27890956  0.50089756     0.36300
N1577       N  0.63179226  0.19977494  0.57696515    -0.44000
N1578       N  0.84685497  0.29118703  0.48845691    -0.44000
C1579       C  0.71232954  0.71372324  0.14818548     0.80000
N1580       N  0.71321463  0.71199591  0.11613643    -0.78300
C1581       C  0.74497879  0.74167666  0.09968482     0.82400
N1582       N  0.77630713  0.77286457  0.11566874    -0.78300
C1583       C  0.77537599  0.77472374  0.14790678     0.82500
N1584       N  0.74346703  0.74471652  0.16390397    -0.80000
C1585       C  0.70878875  0.71521978  0.41812544     0.80000
N1586       N  0.74074567  0.74565615  0.40250243    -0.78300
C1587       C  0.77328462  0.77496729  0.41860551     0.82400
N1588       N  0.77342164  0.77340283  0.45079805    -0.78300
C1589       C  0.74157716  0.74304300  0.46683810     0.82500
N1590       N  0.70920498  0.71383111  0.45035951    -0.80000
C1591       C  0.74027844  0.96026575  0.14959468     0.80000
N1592       N  0.70850689  0.95966113  0.16476005    -0.78300
C1593       C  0.67824358  0.96073597  0.14863421     0.82400
N1594       N  0.68005665  0.96203940  0.11638836    -0.78300
C1595       C  0.71146084  0.96192624  0.10062443     0.82500
N1596       N  0.74179195  0.96144438  0.11737818    -0.80000
C1597       C  0.73623920  0.96050946  0.41146232     0.80000
N1598       N  0.73365884  0.95469107  0.44344283    -0.78300
C1599       C  0.70272227  0.95432619  0.46025218     0.82400
N1600       N  0.67434164  0.95921806  0.44458081    -0.78300
C1601       C  0.67685845  0.96563677  0.41286450     0.82500
N1602       N  0.70803747  0.96636391  0.39643134    -0.80000
C1603       C  0.99518535  0.73905621  0.15094213     0.80000
N1604       N  0.98704150  0.70364944  0.16477091    -0.78300
C1605       C  0.98837440  0.67394421  0.14771758     0.82400
N1606       N  0.99782346  0.67984640  0.11633907    -0.78300
C1607       C  0.00583164  0.71508725  0.10188255     0.82500
N1608       N  0.00443792  0.74472273  0.11944785    -0.80000
C1609       C  0.99471621  0.74329932  0.41744443     0.80000
N1610       N  0.98860504  0.70872370  0.40314540    -0.78300
C1611       C  0.99121793  0.67951470  0.41946510     0.82400
N1612       N  0.99969164  0.68508485  0.45106791    -0.78300
C1613       C  0.00580206  0.71972470  0.46609948     0.82500
N1614       N  0.00340837  0.74878869  0.44894536    -0.80000
O1615       O  0.88523976  0.49856099  0.24473016    -0.88400
C1616       C  0.59447696  0.59923958  0.32829466     1.11600
O1617       O  0.93777046  0.96901262  0.28189888    -1.36200
O1618       O  0.56763610  0.60084460  0.24495173    -0.89900
O1619       O  0.85525072  0.93318430  0.24812991    -0.90600
O1620       O  0.93910733  0.92544739  0.21559364    -0.79400
O1621       O  0.97528235  0.54954330  0.25133491    -1.01500
C1622       C  0.55789826  0.97389774  0.22680566     1.21700
O1623       O  0.98048488  0.92724057  0.28363417    -1.36400
Mn1624     Mn  0.97953282  0.97046062  0.31776672     1.82100
O1625       O  0.52641042  0.97251836  0.21615277    -0.78500
O1626       O  0.60456727  0.57039232  0.24764675    -0.87900
C1627       C  0.55360107  0.97767235  0.34263211     1.12800
C1628       C  0.59688263  0.59619646  0.23541488     1.07500
O1629       O  0.93615024  0.92794407  0.35070209    -0.79400
O1630       O  0.52295803  0.51961052  0.28187646    -1.33100
O1631       O  0.90215360  0.89073364  0.31249617    -0.98600
C1632       C  0.98170099  0.85065733  0.23792501     1.06200
Mn1633     Mn  0.58175882  0.52713928  0.28333927     1.48600
O1634       O  0.94748527  0.84480452  0.24781775    -0.87800
Mn1635     Mn  0.88081889  0.91462228  0.28302349     1.49600
O1636       O  0.88386741  0.50118094  0.31520909    -0.91700
C1637       C  0.97660819  0.54305059  0.22313849     1.19400
C1638       C  0.86157433  0.96938590  0.32758171     1.11400
Mn1639     Mn  0.98106168  0.96879123  0.24788854     1.81000
O1640       O  0.55926540  0.97721259  0.31431079    -0.96800
Mn1641     Mn  0.92942396  0.52287953  0.28066580     1.49300
C1642       C  0.86028332  0.96603749  0.23635370     1.08000
Mn1643     Mn  0.53734767  0.93083516  0.28526325     1.49900
C1644       C  0.98059214  0.85197911  0.33006265     1.10900
O1645       O  0.90155021  0.88950331  0.25334346    -1.02600
O1646       O  0.60286973  0.57245142  0.31861541    -0.92300
C1647       C  0.90691579  0.89490987  0.22484833     1.22200
O1648       O  0.56203678  0.97605195  0.25547589    -1.03000
O1649       O  0.56607514  0.60320567  0.31624344    -0.90400
O1650       O  0.51777884  0.88742287  0.32137556    -0.90000
O1651       O  0.85642439  0.93509752  0.31848106    -0.90100
Mn1652     Mn  0.52276465  0.57534262  0.28033129     1.47900
O1653       O  0.52141540  0.97646234  0.35125042    -0.78500
C1654       C  0.90598981  0.89546160  0.34105019     1.15200
O1655       O  0.98004407  0.51307923  0.21533018    -0.77300
O1656       O  0.97651842  0.51717390  0.34926131    -0.76900
Mn1657     Mn  0.92697320  0.86955264  0.28316806     1.51100
O1658       O  0.52014769  0.88531273  0.25007828    -0.89200
O1659       O  0.97432982  0.55215938  0.31097112    -0.96800
O1660       O  0.94674910  0.84537633  0.31896001    -0.91800
C1661       C  0.97455034  0.54733124  0.33961641     1.13000
C1662       C  0.97429874  0.57758485  0.36194684    -0.00400
C1663       C  0.99449142  0.58496876  0.39125450    -0.12300
C1664       C  0.99967716  0.61711553  0.41113673     0.01800
C1665       C  0.98343829  0.64195490  0.40209413    -0.00500
C1666       C  0.96101631  0.63260638  0.37371360    -0.12200
C1667       C  0.95690385  0.60152425  0.35352219     0.01700
H1668       H  0.00825770  0.56701237  0.39786315     0.14700
H1669       H  0.94747921  0.65058009  0.36655114     0.14700
C1670       C  0.93541177  0.59587968  0.32396487     0.36400
C1671       C  0.02417257  0.62530165  0.43927745     0.36300
N1672       N  0.91848324  0.59193243  0.30024620    -0.44000
N1673       N  0.04413937  0.63151556  0.46161130    -0.44000
C1674       C  0.98908359  0.77280042  0.39850018    -0.00400
C1675       C  0.95752519  0.75714154  0.37606861    -0.12300
C1676       C  0.95326154  0.78248015  0.35443527     0.01800
C1677       C  0.98087278  0.82481041  0.35507085    -0.00500
C1678       C  0.51956264  0.84457260  0.37471443    -0.12200
C1679       C  0.52356456  0.81892495  0.39646703     0.01700
H1680       H  0.93675244  0.72455141  0.37470736     0.14700
H1681       H  0.54479821  0.87526434  0.37171222     0.14700
C1682       C  0.56113951  0.83431783  0.41388458     0.36400
C1683       C  0.92249954  0.76353703  0.33015872     0.36300
N1684       N  0.59128634  0.84667123  0.42780106    -0.44000
N1685       N  0.89803021  0.74806158  0.31062776    -0.44000
C1686       C  0.97513726  0.57113142  0.19981863    -0.00400
C1687       C  0.95044218  0.58784707  0.20698248    -0.12300
C1688       C  0.95221377  0.61934576  0.18892340     0.01800
C1689       C  0.98036358  0.63594283  0.16364594    -0.00500
C1690       C  0.50400892  0.62183842  0.15465402    -0.12200
C1691       C  0.50056942  0.58814496  0.17116652     0.01700
H1692       H  0.93015866  0.57680110  0.22733295     0.14700
H1693       H  0.52195135  0.63163714  0.13308001     0.14700
C1694       C  0.52147668  0.56802508  0.15887159     0.36400
C1695       C  0.92460567  0.63380924  0.19693464     0.36300
N1696       N  0.53826919  0.55194953  0.14893689    -0.44000
N1697       N  0.90226366  0.64508685  0.20341499    -0.44000
C1698       C  0.98319628  0.82309189  0.21311278    -0.00400
C1699       C  0.52372121  0.84365488  0.19468184    -0.12300
C1700       C  0.52714095  0.81746950  0.17277535     0.01800
C1701       C  0.99132694  0.76966196  0.17015937    -0.00500
C1702       C  0.95431263  0.75760844  0.18567830    -0.12200
C1703       C  0.94977777  0.78376753  0.20675394     0.01700
H1704       H  0.54920898  0.87426440  0.19786777     0.14700
H1705       H  0.92886899  0.72721876  0.18161739     0.14700
C1706       C  0.91084371  0.76841552  0.22226160     0.36400
C1707       C  0.56461751  0.83208524  0.15527883     0.36300
N1708       N  0.87953980  0.75599580  0.23454012    -0.44000
N1709       N  0.59474004  0.84409762  0.14127959    -0.44000
C1710       C  0.01216926  0.71960685  0.06672537    -0.00400
C1711       C  0.00390155  0.74706239  0.05074916    -0.12300
C1712       C  0.00477315  0.74942624  0.01747888     0.01800
C1713       C  0.01252455  0.72415108  0.50126281    -0.00500
C1714       C  0.51124509  0.69411128  0.01472418    -0.12200
C1715       C  0.51473739  0.69498648  0.04783746     0.01700
H1716       H  0.99499688  0.76579434  0.06422206     0.14700
H1717       H  0.51928753  0.67066286  0.50151872     0.14700
C1718       C  0.53196917  0.67235436  0.06174185     0.36400
C1719       C  0.99315050  0.77669908  0.00339353     0.36300
N1720       N  0.54560477  0.65382202  0.07246105    -0.44000
N1721       N  0.98978881  0.80458293  0.49576375    -0.44000
C1722       C  0.77104254  0.96382358  0.39310005    -0.00400
C1723       C  0.77260131  0.48138700  0.35879453    -0.09400
C1724       C  0.80030523  0.47999429  0.33768643     0.01800
C1725       C  0.83313472  0.96983416  0.35195679    -0.00500
C1726       C  0.81123443  0.93554943  0.37156462    -0.12200
C1727       C  0.78069237  0.93250611  0.39219758     0.01700
H1728       H  0.75286061  0.49196901  0.34991405     0.14700
H1729       H  0.81735066  0.91059541  0.37033822     0.14700
C1730       C  0.75830454  0.89605031  0.41087628     0.36400
C1731       C  0.80045621  0.49176692  0.30503698     0.36300
N1732       N  0.74043814  0.86677823  0.42580887    -0.44000
N1733       N  0.80047126  0.50102508  0.27888182    -0.44000
C1734       C  0.58496178  0.97983584  0.36451610    -0.00400
C1735       C  0.62923448  0.50832645  0.35271842    -0.12300
C1736       C  0.66081148  0.50970719  0.37029960     0.01800
C1737       C  0.64625787  0.97271818  0.39675229    -0.00500
C1738       C  0.60643206  0.95487494  0.40917466    -0.12200
C1739       C  0.57581809  0.95832715  0.39334643     0.01700
H1740       H  0.63607948  0.52303505  0.32970833     0.14700
H1741       H  0.59870484  0.93676582  0.43063564     0.14700
C1742       C  0.53494266  0.93718997  0.40589513     0.36400
C1743       C  0.70170014  0.53373643  0.35808858     0.36300
N1744       N  0.50212748  0.92010103  0.41586449    -0.44000
N1745       N  0.73437511  0.55347157  0.34830264    -0.44000
C1746       C  0.83016944  0.96293998  0.21268708    -0.00400
C1747       C  0.83923426  0.49473744  0.19135050    -0.12300
C1748       C  0.81086755  0.49468961  0.17017023     0.01800
C1749       C  0.77238723  0.95966058  0.16889692    -0.00500
C1750       C  0.76004146  0.93370233  0.19522592    -0.12200
C1751       C  0.78826384  0.93496145  0.21694878     0.01700
H1752       H  0.86822680  0.52226988  0.19421151     0.14700
H1753       H  0.72787283  0.91285083  0.19928305     0.14700
C1754       C  0.77294950  0.90893217  0.24449901     0.36400
C1755       C  0.82091951  0.53172811  0.15351959     0.36300
N1756       N  0.76073685  0.88819199  0.26660552    -0.44000
N1757       N  0.82871599  0.56136497  0.14022297    -0.44000
C1758       C  0.64517197  0.96225321  0.16707703    -0.00400
C1759       C  0.64698376  0.96114362  0.20037129    -0.12300
C1760       C  0.61932547  0.96485957  0.21986338     0.01800
C1761       C  0.58794329  0.96986106  0.20637993    -0.00500
C1762       C  0.58503716  0.96977992  0.17305508    -0.12200
C1763       C  0.61306748  0.96590497  0.15338484     0.01700
H1764       H  0.67053044  0.95759432  0.21174207     0.14700
H1765       H  0.56087753  0.97283948  0.16228160     0.14700
C1766       C  0.60765132  0.96560625  0.11945116     0.36400
C1767       C  0.62441212  0.96285096  0.25373315     0.36300
N1768       N  0.60299273  0.96522006  0.09226390    -0.44000
N1769       N  0.62394668  0.45569790  0.27917528    -0.44000
C1770       C  0.71324860  0.96423997  0.06548504    -0.00400
C1771       C  0.69996688  0.98836126  0.05053909    -0.12300
C1772       C  0.67467538  0.45172271  0.01478972     0.01800
C1773       C  0.70145560  0.95154478  0.49559510    -0.00500
C1774       C  0.72771985  0.94600023  0.01334360    -0.12200
C1775       C  0.72750095  0.94303651  0.04657563     0.01700
H1776       H  0.64805156  0.44007859  0.06128417     0.14700
H1777       H  0.74092318  0.92587436  0.49697820     0.14700
C1778       C  0.73994812  0.91629848  0.06043142     0.36400
C1779       C  0.63514373  0.43634519  0.00052736     0.36300
N1780       N  0.74978256  0.89471399  0.07145294    -0.44000
N1781       N  0.68167403  0.55144379  0.48978976    -0.44000
C1782       C  0.80913516  0.80636579  0.40060968    -0.00400
C1783       C  0.81554007  0.79615618  0.36993242    -0.12300
C1784       C  0.84738788  0.82402418  0.35089465     0.01800
C1785       C  0.87448000  0.86394008  0.36230799    -0.00500
C1786       C  0.86905279  0.87395728  0.39349175    -0.12200
C1787       C  0.83671242  0.84568767  0.41261921     0.01700
H1788       H  0.79538670  0.76595093  0.36052733     0.14700
H1789       H  0.88919062  0.90431683  0.40256971     0.14700
C1790       C  0.83160244  0.85854614  0.44380426     0.36400
C1791       C  0.85081132  0.81012708  0.31957943     0.36300
N1792       N  0.82741050  0.86875538  0.46882254    -0.44000
N1793       N  0.85300765  0.79864934  0.29451570    -0.44000
C1794       C  0.61967570  0.62747326  0.35434854    -0.00400
C1795       C  0.64438176  0.61740063  0.37258119    -0.12300
C1796       C  0.67190668  0.64466294  0.39494498     0.01800
C1797       C  0.67520051  0.68295767  0.39951773    -0.00500
C1798       C  0.64950440  0.69257151  0.38261535    -0.12200
C1799       C  0.62163950  0.66528165  0.36040204     0.01700
H1800       H  0.64312449  0.58851021  0.36878961     0.14700
H1801       H  0.65220023  0.72219496  0.38605249     0.14700
C1802       C  0.59727040  0.67820692  0.34322334     0.36400
C1803       C  0.69823091  0.63368328  0.41146844     0.36300
N1804       N  0.57780372  0.68869263  0.32952462    -0.44000
N1805       N  0.71938363  0.62486580  0.42459591    -0.44000
C1806       C  0.80894608  0.80839916  0.16592593    -0.00400
C1807       C  0.84919302  0.82640046  0.15453846    -0.12300
C1808       C  0.88192498  0.85548006  0.17280717     0.01800
C1809       C  0.87443022  0.86675720  0.20298922    -0.00500
C1810       C  0.83417677  0.84941657  0.21383065    -0.12200
C1811       C  0.80165205  0.82127890  0.19557093     0.01700
H1812       H  0.85525956  0.81669794  0.13188692     0.14700
H1813       H  0.82787525  0.85777223  0.23695998     0.14700
C1814       C  0.76111320  0.80689671  0.20785747     0.36400
C1815       C  0.92283632  0.87116273  0.16107657     0.36300
N1816       N  0.72870542  0.79547096  0.21774051    -0.44000
N1817       N  0.95569396  0.88366638  0.15182388    -0.44000
C1818       C  0.62407858  0.62297548  0.20967529    -0.00400
C1819       C  0.61745637  0.65368408  0.19744083    -0.12300
C1820       C  0.64506765  0.68276671  0.17620337     0.01800
C1821       C  0.67945195  0.68087216  0.16630529    -0.00500
C1822       C  0.68517213  0.64933651  0.17681629    -0.12200
C1823       C  0.65817058  0.62055063  0.19836721     0.01700
H1824       H  0.59156805  0.65608848  0.20534019     0.14700
H1825       H  0.71189426  0.64824310  0.16915026     0.14700
C1826       C  0.66799094  0.59046732  0.20922526     0.36400
C1827       C  0.63854893  0.71529896  0.16599147     0.36300
N1828       N  0.67650783  0.56684656  0.21793344    -0.44000
N1829       N  0.63340940  0.74145974  0.15791686    -0.44000
C1830       C  0.74580261  0.73932218  0.06468315    -0.00400
C1831       C  0.78324229  0.75301912  0.04930480    -0.12300
C1832       C  0.78533765  0.75055372  0.01625655     0.01800
C1833       C  0.74223699  0.74203969  0.50202915    -0.00500
C1834       C  0.71188211  0.72004518  0.01341069    -0.12200
C1835       C  0.70987267  0.72297973  0.04635997     0.01700
H1836       H  0.81093158  0.76528584  0.06316079     0.14700
H1837       H  0.67786402  0.71986451  0.50624313     0.14700
C1838       C  0.67080288  0.71129757  0.06037885     0.36400
C1839       C  0.82481198  0.76455440  0.00198160     0.36300
N1840       N  0.63955649  0.70219664  0.07160939    -0.44000
N1841       N  0.85649807  0.77593074  0.99064199    -0.44000
C1842       C  0.71719514  0.71299942  0.65391206     0.80000
N1843       N  0.71341679  0.71418175  0.62194001    -0.78300
C1844       C  0.74423135  0.74358036  0.60448025     0.82400
N1845       N  0.77877409  0.77177249  0.61932865    -0.78300
C1846       C  0.78287390  0.77065056  0.65124807     0.82500
N1847       N  0.75198681  0.74099825  0.66839934    -0.80000
C1848       C  0.71729231  0.70752824  0.91389280     0.80000
N1849       N  0.74872457  0.73932950  0.89890948    -0.78300
C1850       C  0.78086185  0.76839121  0.91558673     0.82400
N1851       N  0.78106567  0.76554602  0.94753670    -0.78300
C1852       C  0.74984216  0.73414484  0.96295040     0.82500
N1853       N  0.71780449  0.70507547  0.94606137    -0.80000
C1854       C  0.73946515  0.95698329  0.64642463     0.80000
N1855       N  0.70953869  0.95882326  0.66253677    -0.78300
C1856       C  0.67731213  0.95699711  0.64716263     0.82400
N1857       N  0.67561079  0.95324731  0.61500988    -0.78300
C1858       C  0.70539787  0.95108861  0.59838794     0.82500
N1859       N  0.73746636  0.95318622  0.61434362    -0.80000
C1860       C  0.73821944  0.96735331  0.91256822     0.80000
N1861       N  0.73972816  0.96609841  0.94487564    -0.78300
C1862       C  0.71190824  0.96985286  0.96308555     0.82400
N1863       N  0.68240462  0.97433087  0.94873977    -0.78300
C1864       C  0.68101901  0.97622023  0.91672617     0.82500
N1865       N  0.70884363  0.97258504  0.89893235    -0.80000
C1866       C  0.00520306  0.74582386  0.65347567     0.80000
N1867       N  0.99881547  0.71115130  0.66785300    -0.78300
C1868       C  0.99988986  0.68110159  0.65100190     0.82400
N1869       N  0.00715574  0.68589000  0.61927259    -0.78300
C1870       C  0.01334173  0.72021804  0.60427154     0.82500
N1871       N  0.01221430  0.75011864  0.62163613    -0.80000
C1872       C  0.00767028  0.74953619  0.91454678     0.80000
N1873       N  0.00434147  0.71647396  0.89934043    -0.78300
C1874       C  0.00606018  0.68648684  0.91546943     0.82400
N1875       N  0.01017552  0.68961246  0.94765547    -0.78300
C1876       C  0.01310883  0.72254999  0.96347877     0.82500
N1877       N  0.01205032  0.75248441  0.94657474    -0.80000
O1878       O  0.89223047  0.50560871  0.74475739    -0.88400
C1879       C  0.59452273  0.59156637  0.82846103     1.11600
O1880       O  0.93698374  0.97076308  0.78209700    -1.36200
O1881       O  0.56866561  0.59526054  0.74642906    -0.89900
O1882       O  0.85607095  0.93134390  0.74461014    -0.90600
O1883       O  0.94289039  0.92985255  0.71559196    -0.79400
O1884       O  0.98252279  0.54953064  0.75056548    -1.01500
C1885       C  0.55898414  0.97258070  0.72618974     1.21700
O1886       O  0.98450540  0.93314239  0.78398807    -1.36400
Mn1887     Mn  0.97942761  0.97393098  0.81814111     1.82100
O1888       O  0.52797361  0.97231317  0.71570335    -0.78500
O1889       O  0.60360109  0.56254317  0.74820851    -0.87900
C1890       C  0.55523248  0.97707538  0.84235164     1.12800
C1891       C  0.59773085  0.59013652  0.73707318     1.07500
O1892       O  0.93755305  0.92989699  0.85087209    -0.79400
O1893       O  0.52123930  0.51297368  0.78227820    -1.33100
O1894       O  0.90422080  0.89162463  0.81226007    -0.98600
C1895       C  0.99242114  0.85982762  0.73856710     1.06200
Mn1896     Mn  0.57939952  0.51876263  0.78360207     1.48600
O1897       O  0.95767596  0.85222497  0.74821743    -0.87800
Mn1898     Mn  0.88148019  0.91473807  0.78107360     1.49600
O1899       O  0.89197765  0.50726712  0.81553185    -0.91700
C1900       C  0.98308044  0.54377928  0.72219166     1.19400
C1901       C  0.85627202  0.96531832  0.82538187     1.11400
Mn1902     Mn  0.98227245  0.97374493  0.74866276     1.81000
O1903       O  0.56156150  0.97598474  0.81409369    -0.96800
Mn1904     Mn  0.93683243  0.52600837  0.78025570     1.49300
C1905       C  0.85960018  0.96394447  0.73355124     1.08000
Mn1906     Mn  0.53834029  0.92912911  0.78496521     1.49900
C1907       C  0.98995259  0.85963348  0.83010840     1.10900
O1908       O  0.90651808  0.89156535  0.75277076    -1.02600
O1909       O  0.60181010  0.56407955  0.81877441    -0.92300
C1910       C  0.91278131  0.89707805  0.72434664     1.22200
O1911       O  0.56295341  0.97395789  0.75486938    -1.03000
O1912       O  0.56597962  0.59605665  0.81726004    -0.90400
O1913       O  0.51816141  0.88567925  0.82123084    -0.90000
O1914       O  0.85255803  0.93178448  0.81576991    -0.90100
Mn1915     Mn  0.52263703  0.56943466  0.78099928     1.47900
O1916       O  0.52252522  0.97514156  0.85037842    -0.78500
C1917       C  0.90842398  0.89676352  0.84121316     1.15200
O1918       O  0.98380681  0.51249418  0.71351907    -0.77300
O1919       O  0.98239201  0.51660795  0.84864207    -0.76900
Mn1920     Mn  0.93398883  0.87366769  0.78281249     1.51100
O1921       O  0.52085828  0.88310741  0.75001587    -0.89200
O1922       O  0.98269842  0.55169698  0.80982850    -0.96800
O1923       O  0.95562997  0.85136581  0.81881539    -0.91800
C1924       C  0.98324823  0.54812273  0.83850797     1.13000
C1925       C  0.98660393  0.58144588  0.85963095    -0.00400
C1926       C  0.00603618  0.58887769  0.88932742    -0.12300
C1927       C  0.01323645  0.62281754  0.90808531     0.01800
C1928       C  0.99974494  0.64951160  0.89760524    -0.00500
C1929       C  0.97977005  0.64137281  0.86819461    -0.12200
C1930       C  0.97367946  0.60856072  0.84919140     0.01700
H1931       H  0.01723013  0.56917589  0.89729103     0.14700
H1932       H  0.96894494  0.66111072  0.85955386     0.14700
C1933       C  0.95465447  0.60442664  0.81868524     0.36400
C1934       C  0.03671191  0.63068388  0.93678527     0.36300
N1935       N  0.94000558  0.60184212  0.79410617    -0.44000
N1936       N  0.05591787  0.63687590  0.95957665    -0.44000
C1937       C  0.00214690  0.77955329  0.89631070    -0.00400
C1938       C  0.96619328  0.76552029  0.87895548    -0.12300
C1939       C  0.96055861  0.79126494  0.85855766     0.01800
C1940       C  0.99189615  0.83231667  0.85467845    -0.00500
C1941       C  0.51178230  0.83945096  0.87661280    -0.12200
C1942       C  0.51289269  0.81194282  0.89822534     0.01700
H1943       H  0.94258242  0.73381071  0.88087365     0.14700
H1944       H  0.53477922  0.87137304  0.87808984     0.14700
C1945       C  0.54507527  0.82713202  0.92149918     0.36400
C1946       C  0.92309890  0.77338574  0.84079564     0.36300
N1947       N  0.57093028  0.83932772  0.94010798    -0.44000
N1948       N  0.89278759  0.75811190  0.82689299    -0.44000
C1949       C  0.98371574  0.57431957  0.70010209    -0.00400
C1950       C  0.96097487  0.59270337  0.70881341    -0.12300
C1951       C  0.96466070  0.62629538  0.69257844     0.01800
C1952       C  0.99240490  0.64312157  0.66704881    -0.00500
C1953       C  0.50928067  0.61968966  0.65637040    -0.12200
C1954       C  0.50499462  0.58561229  0.67283992     0.01700
H1955       H  0.94054408  0.58117158  0.72904511     0.14700
H1956       H  0.53106081  0.63224186  0.63709421     0.14700
C1957       C  0.52946540  0.56810529  0.66320948     0.36400
C1958       C  0.93887207  0.64211013  0.70266650     0.36300
N1959       N  0.54905995  0.55407066  0.65540969    -0.44000
N1960       N  0.91765856  0.65393215  0.71120868    -0.44000
C1961       C  0.99404149  0.83138062  0.71483331    -0.00400
C1962       C  0.52671144  0.84056659  0.69613520    -0.12300
C1963       C  0.53102558  0.81386988  0.67531989     0.01800
C1964       C  0.00110827  0.77670720  0.67247533    -0.00500
C1965       C  0.96888382  0.76269680  0.69419072    -0.12200
C1966       C  0.96483264  0.78923972  0.71500375     0.01700
H1967       H  0.55229400  0.87098258  0.69973015     0.14700
H1968       H  0.94666989  0.73053770  0.69503574     0.14700
C1969       C  0.93113851  0.77154452  0.73708797     0.36400
C1970       C  0.56956677  0.82788331  0.65956219     0.36300
N1971       N  0.90387716  0.75692963  0.75448475    -0.44000
N1972       N  0.60055756  0.83935725  0.64699604    -0.44000
C1973       C  0.01695686  0.72323705  0.56885384    -0.00400
C1974       C  0.00959873  0.75160397  0.55327782    -0.12300
C1975       C  0.00725841  0.75234236  0.52005531     0.01800
C1976       C  0.01475312  0.72417421  0.99904522    -0.00500
C1977       C  0.51812038  0.69416142  0.51555428    -0.12200
C1978       C  0.51929305  0.69197444  0.54870706     0.01700
H1979       H  0.00395990  0.77250538  0.56712701     0.14700
H1980       H  0.52169740  0.67692490  0.00095283     0.14700
C1981       C  0.52295060  0.65880219  0.56163486     0.36400
C1982       C  0.99756639  0.78130236  0.50648088     0.36300
N1983       N  0.52578779  0.63194646  0.57150129    -0.44000
N1984       N  0.98368244  0.79857609  0.99237909    -0.44000
C1985       C  0.76941637  0.96605710  0.89160492    -0.00400
C1986       C  0.79514884  0.50514917  0.86991496    -0.09400
C1987       C  0.82363961  0.50570301  0.84851624     0.01800
C1988       C  0.82621381  0.96494998  0.84808732    -0.00500
C1989       C  0.81829431  0.94442411  0.87723165    -0.12200
C1990       C  0.79050139  0.94520013  0.89916991     0.01700
H1991       H  0.78675526  0.52844495  0.86832717     0.14700
H1992       H  0.83421435  0.92827100  0.88302453     0.14700
C1993       C  0.78366729  0.92357858  0.92870154     0.36400
C1994       C  0.83782975  0.53567334  0.82351956     0.36300
N1995       N  0.77845122  0.90623723  0.95235954    -0.44000
N1996       N  0.84847182  0.55937035  0.80329643    -0.44000
C1997       C  0.58682397  0.98192243  0.86526459    -0.00400
C1998       C  0.62686496  0.50128823  0.85120877    -0.12300
C1999       C  0.65939093  0.50347947  0.86801037     0.01800
C2000       C  0.64965644  0.98222773  0.90101067    -0.00500
C2001       C  0.60941946  0.96224171  0.91252246    -0.12200
C2002       C  0.57803807  0.96249857  0.89509064     0.01700
H2003       H  0.63263273  0.51511966  0.82787648     0.14700
H2004       H  0.60218280  0.94502126  0.93442338     0.14700
C2005       C  0.53709678  0.94103281  0.90745674     0.36400
C2006       C  0.69922960  0.52575347  0.85363820     0.36300
N2007       N  0.50426624  0.92401547  0.91739794    -0.44000
N2008       N  0.73079488  0.54374265  0.84160451    -0.44000
C2009       C  0.83125201  0.96114696  0.70782660    -0.00400
C2010       C  0.84943215  0.50081727  0.68735602    -0.12300
C2011       C  0.82273002  0.50344826  0.66584786     0.01800
C2012       C  0.77367588  0.95914387  0.66424158    -0.00500
C2013       C  0.77053124  0.92293200  0.67497133    -0.12200
C2014       C  0.79860846  0.92339739  0.69666099     0.01700
H2015       H  0.88171765  0.52272455  0.68595056     0.14700
H2016       H  0.74488099  0.89410084  0.66746927     0.14700
C2017       C  0.79129518  0.88443533  0.70797774     0.36400
C2018       C  0.83909020  0.53627430  0.64319516     0.36300
N2019       N  0.78499313  0.85307350  0.71704920    -0.44000
N2020       N  0.85249957  0.56283173  0.62522578    -0.44000
C2021       C  0.64579482  0.96087143  0.66593710    -0.00400
C2022       C  0.65361498  0.97056262  0.69834697    -0.12300
C2023       C  0.62635332  0.97486819  0.71793546     0.01800
C2024       C  0.58952286  0.96987533  0.70540902    -0.00500
C2025       C  0.58144660  0.96042739  0.67292823    -0.12200
C2026       C  0.60889243  0.95565730  0.65322597     0.01700
H2027       H  0.68149479  0.97495249  0.70888756     0.14700
H2028       H  0.55326816  0.95599458  0.66296793     0.14700
C2029       C  0.59755261  0.94459089  0.62044090     0.36400
C2030       C  0.63780480  0.98442098  0.75092174     0.36300
N2031       N  0.58803013  0.93562005  0.59422551    -0.44000
N2032       N  0.61762898  0.44077347  0.77620752    -0.44000
C2033       C  0.70390397  0.94938346  0.56302652    -0.00400
C2034       C  0.68075805  0.96354895  0.54760080    -0.12300
C2035       C  0.70687797  0.50601125  0.51573560     0.01800
C2036       C  0.71364817  0.96956896  0.99834999    -0.00500
C2037       C  0.72409809  0.93662914  0.51097969    -0.12200
C2038       C  0.72554224  0.93540682  0.54424560     0.01700
H2039       H  0.69883826  0.52375225  0.56260728     0.14700
H2040       H  0.73776601  0.92883431  0.99907786     0.14700
C2041       C  0.74905679  0.91910650  0.55812624     0.36400
C2042       C  0.69291935  0.53124708  0.50129449     0.36300
N2043       N  0.76802382  0.90607712  0.56908204    -0.44000
N2044       N  0.60288187  0.42365324  0.99008523    -0.44000
C2045       C  0.81575052  0.80178624  0.89860783    -0.00400
C2046       C  0.82140139  0.79445422  0.86701758    -0.12300
C2047       C  0.85186827  0.82436523  0.84858084     0.01800
C2048       C  0.87860810  0.86348318  0.86173390    -0.00500
C2049       C  0.87425042  0.87060390  0.89384660    -0.12200
C2050       C  0.84303704  0.84019417  0.91237122     0.01700
H2051       H  0.80153289  0.76496646  0.85630886     0.14700
H2052       H  0.89426251  0.90025807  0.90418406     0.14700
C2053       C  0.83898920  0.85006138  0.94484711     0.36400
C2054       C  0.85355824  0.81317491  0.81595081     0.36300
N2055       N  0.83595303  0.85814333  0.97089356    -0.44000
N2056       N  0.85412283  0.80358832  0.78990525    -0.44000
C2057       C  0.62199552  0.62075090  0.85289681    -0.00400
C2058       C  0.63855629  0.60713458  0.87642078    -0.12300
C2059       C  0.66837893  0.63460270  0.89750670     0.01800
C2060       C  0.68265512  0.67668822  0.89491629    -0.00500
C2061       C  0.66545267  0.69019088  0.87199579    -0.12200
C2062       C  0.63515380  0.66278256  0.85132889     0.01700
H2063       H  0.62878775  0.57504713  0.87792425     0.14700
H2064       H  0.67627973  0.72247909  0.86986895     0.14700
C2065       C  0.62007727  0.67911310  0.82749908     0.36400
C2066       C  0.68563311  0.61910670  0.92017038     0.36300
N2067       N  0.60795994  0.69216271  0.80841215    -0.44000
N2068       N  0.69948629  0.60664463  0.93827974    -0.44000
C2069       C  0.82020881  0.80212041  0.66732591    -0.00400
C2070       C  0.83900996  0.84262269  0.65660011    -0.12300
C2071       C  0.87097299  0.87422741  0.67375045     0.01800
C2072       C  0.88488333  0.86527195  0.70188697    -0.00500
C2073       C  0.86832758  0.82449284  0.71098866    -0.12200
C2074       C  0.83621052  0.79305524  0.69425818     0.01700
H2075       H  0.82718347  0.84996742  0.63583037     0.14700
H2076       H  0.87989875  0.81720950  0.73184889     0.14700
C2077       C  0.82034726  0.75191289  0.70546626     0.36400
C2078       C  0.88652606  0.91564625  0.66347739     0.36300
N2079       N  0.80774630  0.71906173  0.71464098    -0.44000
N2080       N  0.89890301  0.94888860  0.65537457    -0.44000
C2081       C  0.62712143  0.61877221  0.71314001    -0.00400
C2082       C  0.61860701  0.64676576  0.69814631    -0.12300
C2083       C  0.64702575  0.67699088  0.67799777     0.01800
C2084       C  0.68501222  0.67995144  0.67275293    -0.00500
C2085       C  0.69344556  0.65176533  0.68686315    -0.12200
C2086       C  0.66498613  0.62106270  0.70657351     0.01700
H2087       H  0.58995446  0.64571538  0.70264566     0.14700
H2088       H  0.72270905  0.65400361  0.68261471     0.14700
C2089       C  0.67652402  0.59342771  0.72014925     0.36400
C2090       C  0.63737746  0.70592974  0.66437858     0.36300
N2091       N  0.68592068  0.57135384  0.73088847    -0.44000
N2092       N  0.62955250  0.72917003  0.65366982    -0.44000
C2093       C  0.74221612  0.74300682  0.56930348    -0.00400
C2094       C  0.77832068  0.75521244  0.55222571    -0.12300
C2095       C  0.77864370  0.75462917  0.51904000     0.01800
C2096       C  0.74927688  0.73398499  0.99798560    -0.00500
C2097       C  0.70593401  0.72929877  0.51903301    -0.12200
C2098       C  0.70561615  0.72983188  0.55236755     0.01700
H2099       H  0.80647134  0.76453121  0.56486929     0.14700
H2100       H  0.68421162  0.70831132  0.99958989     0.14700
C2101       C  0.66769108  0.71847073  0.56833204     0.36400
C2102       C  0.81656348  0.76546488  0.50325405     0.36300
N2103       N  0.63716388  0.70943368  0.58086989    -0.44000
N2104       N  0.84698489  0.77404042  0.49072861    -0.44000
loop_ 
_geom_bond_atom_site_label_1 
_geom_bond_atom_site_label_2 
_geom_bond_distance 
_geom_bond_site_symmetry_2 
_ccdc_geom_bond_type 
C1            N2   1.352       .  A
C1            N6   1.353       .  A
C1          C243   1.465       .  S
N2            C3   1.358       .  A
C3            N4   1.363       .  A
C3          C252   1.482       .  S
N4            C5   1.360       .  A
C5            N6   1.358       .  A
C5          C228   1.486       .  S
C7            N8   1.358       .  A
C7           N12   1.361       .  A
C7          C219   1.492       .  S
N8            C9   1.358       .  A
C9           N10   1.354       .  A
C9          C204   1.491       .  S
N10          C11   1.361       .  A
C11          N12   1.366       .  A
C11         C255   1.487       .  S
C13          N14   1.354       .  A
C13          N18   1.355       .  A
C13         C171   1.477       .  S
N14          C15   1.358       .  A
C15          N16   1.359       .  A
C15         C180   1.499       .  S
N16          C17   1.364       .  A
C17          N18   1.361       .  A
C17         C192   1.481       .  S
C19          N20   1.363       .  A
C19          N24   1.358       .  A
C19         C144   1.490       .  S
N20          C21   1.365       .  A
C21          N22   1.359       .  A
C21         C195   1.485       .  S
N22          C23   1.353       .  A
C23          N24   1.356       .  A
C23         C159   1.480       .  S
C25          N26   1.359       .  A
C25          N30   1.367       .  A
C25         C123   1.503       .  S
N26          C27   1.356       .  A
C27          N28   1.353       .  A
C27         C111   1.483       .  S
N28          C29   1.359       .  A
C29          N30   1.371       .  A
C29         C132   1.500       .  S
C31          N32   1.352       .  A
C31          N36   1.361       .  A
C31          C96   1.481       .  S
N32          C33   1.353       .  A
C33          N34   1.357       .  A
C33          C87   1.487       .  S
N34          C35   1.365       .  A
C35          N36   1.365       .  A
C35         C135   1.495       .  S
O37         Mn63   2.099       .  S
O37         C590   1.272   1_545  A
C38         C216   1.484       .  S
C38          O71   1.271       .  A
C38          O68   1.272       .  A
O39         Mn46   2.167       .  S
O39         Mn57   2.116       .  S
O39         Mn61   2.181       .  S
O39        Mn589   2.115       .  S
O40         Mn74   2.097       .  S
O40          C50   1.274       .  A
O41         Mn57   2.091       .  S
O41          C64   1.271       .  A
O42         Mn61   2.127       .  S
O42          C69   1.256       .  A
O43         Mn63   1.959       .  S
O43       Mn1126   1.955       .  S
O43          C59   1.215       .  S
C44         C183   1.492       .  S
C44          O47   1.253       .  A
C44          O70   1.212       .  S
O45         Mn46   2.182       .  S
O45         Mn79   2.107       .  S
O45         Mn61   2.177       .  S
O45       Mn1117   2.116       .  S
Mn46         O51   2.144       .  S
Mn46       O1127   2.110       .  S
Mn46        O604   2.120       .  S
Mn46       O1630   2.179       .  S
O47       Mn1113   2.128   1_455  S
O48         Mn55   2.073       .  S
O48          C50   1.267       .  A
C49         C156   1.481       .  S
C49          O75   1.254       .  A
C49          O62   1.216       .  S
C50         C240   1.492       .  S
O51          C76   1.256       .  A
O52         Mn55   2.111       .  S
O52         Mn74   2.115       .  S
O52       Mn1624   2.189   1_445  S
O52       Mn1639   2.172   1_445  S
O53         Mn57   1.942       .  S
O53         Mn79   1.950       .  S
O53          C76   1.209       .  S
C54         C120   1.491       .  S
C54          O56   1.276       .  A
C54        O1132   1.272       .  A
Mn55         O68   2.106       .  S
Mn55        O588   2.009   1_545  S
Mn55        O596   1.976   1_545  S
O56         Mn79   2.108       .  S
Mn57         O73   2.106       .  S
Mn57         O67   1.962       .  S
O58         Mn63   2.089       .  S
O58         C586   1.271   1_545  A
C59         C108   1.478       .  S
C59          O77   1.253       .  A
C60         C147   1.483       .  S
C60          O73   1.273       .  A
C60         O584   1.272       .  A
Mn61       O1099   2.133       .  S
Mn61        O603   2.127       .  S
Mn61       O1630   2.178       .  S
O62         Mn65   1.962       .  S
O62        Mn581   1.952       .  S
Mn63        O565   2.113   1_545  S
Mn63         O81   1.951       .  S
C64         C168   1.479       .  S
C64         O563   1.270       .  A
Mn65         O72   2.076       .  S
Mn65         O80   2.109       .  S
Mn65       O1097   2.114   1_455  S
Mn65         O70   1.938       .  S
C66          C99   1.477       .  S
C66          O82   1.275       .  A
C66        O1124   1.267       .  A
O67         Mn79   1.970       .  S
O67          C69   1.216       .  S
C69         C231   1.484       .  S
O70        Mn581   1.951       .  S
O71         Mn74   2.093       .  S
O72        C1118   1.269   1_455  A
Mn74       O1095   1.956   1_455  S
Mn74       O1133   1.943   1_455  S
O75       Mn1098   2.119   1_455  S
C76         C207   1.491       .  S
O77        Mn587   2.115   1_545  S
O78        Mn572   2.115   1_545  S
O78          C83   1.256       .  A
Mn79         O82   2.119       .  S
O80        C1106   1.274   1_455  A
O81       Mn1126   1.945       .  S
O81          C83   1.217       .  S
C83          C84   1.485       .  S
C84          C85   1.406       .  A
C84          C89   1.416       .  A
C85          C86   1.407       .  A
C85          H90   1.084       .  S
C86          C87   1.415       .  A
C86          C93   1.443       .  S
C87          C88   1.404       .  A
C88          C89   1.392       .  A
C88          H91   1.085       .  S
C89          C92   1.446       .  S
C92          N94   1.157       .  T
C93          N95   1.157       .  T
C96          C97   1.404       .  A
C96        C1153   1.414       .  A
C97          C98   1.404       .  A
C97         H102   1.083       .  S
C98          C99   1.409       .  A
C98         C105   1.438       .  S
C99        C1152   1.402       .  A
C100        C101   1.397       .  A
C100       C1151   1.405   1_455  A
C100        H103   1.086       .  S
C101       C1148   1.412       .  A
C101        C104   1.445       .  S
C104        N106   1.157       .  T
C105        N107   1.155       .  T
C108        C109   1.403       .  A
C108       C1165   1.411       .  A
C109        C110   1.394       .  A
C109        H114   1.083       .  S
C110        C111   1.411       .  A
C110        C117   1.444       .  S
C111       C1164   1.409       .  A
C112        C113   1.409       .  A
C112       C1163   1.409   1_455  A
C112        H115   1.083       .  S
C113       C1160   1.411   1_455  A
C113        C116   1.443       .  S
C116        N118   1.157       .  T
C117        N119   1.157       .  T
C120        C125   1.410       .  A
C120       C1173   1.408       .  A
C121        C122   1.410       .  A
C121       C1172   1.408   1_455  A
C121        H126   1.086       .  S
C122       C1175   1.417   1_455  A
C122        C129   1.443       .  S
C123        C124   1.409       .  A
C123       C1174   1.418       .  A
C124        C125   1.399       .  A
C124        H127   1.082       .  S
C125        C128   1.446       .  S
C128        N130   1.157       .  T
C129        N131   1.157       .  T
C132        C133   1.406       .  A
C132       C1189   1.421       .  A
C133        C134   1.406       .  A
C133        H138   1.085       .  S
C134        C398   1.423   1_554  A
C134        C141   1.444       .  S
C135        C397   1.417       .  A
C135       C1451   1.406       .  A
C136        C137   1.400       .  A
C136       C1450   1.404       .  A
C136        H402   1.088       .  S
C137       C1184   1.418       .  A
C137        C140   1.444       .  S
H139        C399   1.087       .  S
C140        N142   1.157       .  T
C141        N406   1.158   1_554  T
N143        C404   1.157       .  T
C144        C149   1.415       .  A
C144        C671   1.405       .  A
C145        C146   1.396       .  A
C145        C670   1.401   1_545  A
C145        H150   1.084       .  S
C146        C673   1.415   1_545  A
C146        C153   1.445       .  S
C147        C148   1.406       .  A
C147        C672   1.412       .  A
C148        C149   1.409       .  A
C148        H151   1.082       .  S
C149        C152   1.443       .  S
C152        N154   1.157       .  T
C153        N155   1.157       .  T
C156        C161   1.411       .  A
C156        C683   1.405       .  A
C157        C158   1.387       .  A
C157        C682   1.406       .  A
C157        H162   1.085   1_565  S
C158        C685   1.414       .  A
C158        C165   1.446   1_565  S
C159        C160   1.407       .  A
C159        C684   1.409       .  A
C160        C161   1.407       .  A
C160        H163   1.083       .  S
C161        C164   1.441       .  S
C164        N166   1.157       .  T
C165        N167   1.157       .  T
C168        C173   1.413       .  A
C168        C695   1.406       .  A
C169        C170   1.402       .  A
C169        C694   1.406       .  A
C169        H174   1.085   1_565  S
C170        C697   1.409       .  A
C170        C177   1.442   1_565  S
C171        C172   1.401       .  A
C171        C696   1.412       .  A
C172        C173   1.396       .  A
C172        H175   1.086       .  S
C173        C176   1.445       .  S
C176        N178   1.157       .  T
C177        N179   1.157       .  T
C180        C181   1.405       .  A
C180        C185   1.421       .  A
C181        C182   1.392       .  A
C181        H186   1.084       .  S
C182        C183   1.419       .  A
C182        C189   1.447       .  S
C183        C184   1.406       .  A
C184        C185   1.410       .  A
C184        H187   1.084       .  S
C185        C188   1.443       .  S
C188        N190   1.157       .  T
C189        N717   1.158       .  T
N191        C715   1.158       .  T
C192        C193   1.401       .  A
C192        C197   1.415       .  A
C193        C720   1.397       .  A
C193        H724   1.085       .  S
C194        C719   1.401       .  A
C194        C984   1.413   1_554  A
C194        C201   1.444   1_554  S
C195        C983   1.417       .  A
C195        C459   1.404       .  A
C196        C197   1.403       .  A
C196        C458   1.404   1_554  A
C196        H462   1.085       .  S
C197        C200   1.444       .  S
H198        C719   1.085       .  S
H199        C459   1.085       .  S
C200        N202   1.157       .  T
C201        N466   1.157       .  T
N203        C464   1.157       .  T
C204        C205   1.401       .  A
C204        C209   1.419       .  A
C205        C206   1.393       .  A
C205        H210   1.084       .  S
C206        C207   1.420       .  A
C206        C213   1.446       .  S
C207        C208   1.406       .  A
C208        C209   1.410       .  A
C208        H211   1.083       .  S
C209        C212   1.443       .  S
C212        N214   1.157       .  T
C213        N215   1.157       .  T
C216        C217   1.406       .  A
C216        C221   1.411       .  A
C217        C218   1.411       .  A
C217        H222   1.085       .  S
C218        C219   1.417       .  A
C218        C225   1.444       .  S
C219        C220   1.405       .  A
C220        C221   1.398       .  A
C220        H223   1.085       .  S
C221        C224   1.445       .  S
C224        N226   1.157       .  T
C225        N227   1.157       .  T
C228        C229   1.410       .  A
C228        C233   1.413       .  A
C229        C230   1.410       .  A
C229        H234   1.084       .  S
C230        C231   1.411       .  A
C230        C237   1.443       .  S
C231        C232   1.405       .  A
C232        C233   1.392       .  A
C232        H235   1.084       .  S
C233        C236   1.446       .  S
C236        N238   1.157       .  T
C237        N239   1.157       .  T
C240        C241   1.409       .  A
C240        C245   1.424       .  A
C241        C242   1.398       .  A
C241        H246   1.085       .  S
C242        C243   1.406       .  A
C242        C249   1.444       .  S
C243        C244   1.396       .  A
C244        C245   1.399       .  A
C244        H247   1.086       .  S
C245        C248   1.445       .  S
C248        N250   1.157       .  T
C249        N251   1.157       .  T
C252        C253   1.403       .  A
C252        C257   1.416       .  A
C253        C254   1.398       .  A
C253        H258   1.084       .  S
C254        C518   1.417       .  A
C254        C261   1.445       .  S
C255        C517   1.416       .  A
C255        C519   1.405       .  A
C256        C257   1.397       .  A
C256        C518   1.404       .  A
C256        H522   1.084       .  S
C257        C260   1.445       .  S
H259        C519   1.084       .  S
C260        N262   1.157       .  T
C261        N263   1.158   1_554  T
C264        N265   1.355       .  A
C264        N269   1.352       .  A
C264        C506   1.468       .  S
N265        C266   1.362       .  A
C266        N267   1.365       .  A
C266        C515   1.487       .  S
N267        C268   1.358       .  A
C268        N269   1.354       .  A
C268        C491   1.486       .  S
C270        N271   1.357       .  A
C270        N275   1.357       .  A
C270        C482   1.479       .  S
N271        C272   1.359       .  A
C272        N273   1.353       .  A
C272        C467   1.485       .  S
N273        C274   1.357       .  A
C274        N275   1.362       .  A
C274        C518   1.483   1_556  S
C276        N277   1.353       .  A
C276        N281   1.356       .  A
C276        C434   1.475       .  S
N277        C278   1.357       .  A
C278        N279   1.359       .  A
C278        C443   1.496       .  S
N279        C280   1.364       .  A
C280        N281   1.360       .  A
C280        C455   1.480       .  S
C282        N283   1.361       .  A
C282        N287   1.358       .  A
C282        C407   1.481       .  S
N283        C284   1.365       .  A
C284        N285   1.360       .  A
C284        C458   1.484       .  S
N285        C286   1.354       .  A
C286        N287   1.356       .  A
C286        C422   1.484       .  S
C288        N289   1.355       .  A
C288        N293   1.359       .  A
C288        C386   1.478       .  S
N289        C290   1.356       .  A
C290        N291   1.358       .  A
C290        C374   1.487       .  S
N291        C292   1.364       .  A
C292        N293   1.365       .  A
C292        C395   1.495       .  S
C294        N295   1.352       .  A
C294        N299   1.355       .  A
C294        C359   1.477       .  S
N295        C296   1.356       .  A
C296        N297   1.364       .  A
C296        C350   1.501       .  S
N297        C298   1.370       .  A
C298        N299   1.361       .  A
C298        C398   1.501       .  S
O300       Mn326   2.112       .  S
O300        C853   1.273   1_545  A
C301        C479   1.483       .  S
C301        O334   1.270       .  A
C301        O331   1.272       .  A
O302       Mn309   2.176       .  S
O302       Mn320   2.113       .  S
O302       Mn324   2.185       .  S
O302       Mn852   2.116       .  S
O303       Mn337   2.102       .  S
O303        C313   1.273       .  A
O304       Mn320   2.071       .  S
O304        C327   1.265       .  A
O305       Mn324   2.126       .  S
O305        C332   1.255       .  A
O306      Mn1389   1.957       .  S
O306       Mn326   1.953       .  S
O306        C322   1.217       .  S
C307        C446   1.489       .  S
C307        O310   1.255       .  A
C307        O333   1.214       .  S
O308      Mn1380   2.116       .  S
O308       Mn309   2.186       .  S
O308       Mn342   2.104       .  S
O308       Mn324   2.175       .  S
Mn309      O1390   2.122       .  S
Mn309       O314   2.144       .  S
Mn309       O867   2.130       .  S
Mn309      O1893   2.184       .  S
O310      Mn1376   2.125   1_455  S
O311       Mn318   2.076       .  S
O311        C313   1.268       .  A
C312        C419   1.481       .  S
C312        O338   1.254       .  A
C312        O325   1.215       .  S
C313        C503   1.492       .  S
O314        C339   1.257       .  A
O315      Mn1887   2.172   1_445  S
O315       Mn318   2.110       .  S
O315       Mn337   2.130       .  S
O315      Mn1902   2.166   1_445  S
O316       Mn320   2.007       .  S
O316       Mn342   2.009       .  S
O316        C339   1.231       .  A
C317        C383   1.490       .  S
C317       O1395   1.274       .  A
C317        O319   1.269       .  A
Mn318       O331   2.095       .  S
Mn318       O859   1.957   1_545  S
Mn318       O851   1.950   1_545  S
O319       Mn342   2.078       .  S
Mn320       O336   2.103       .  S
Mn320       O330   1.966       .  S
O321       Mn326   2.095       .  S
O321        C849   1.272   1_545  A
C322        C371   1.482       .  S
C322        O340   1.254       .  A
C323        C410   1.493       .  S
C323        O847   1.271       .  A
C323        O336   1.273       .  A
Mn324      O1362   2.127       .  S
Mn324       O866   2.118       .  S
Mn324      O1893   2.174       .  S
O325       Mn844   1.949       .  S
O325       Mn328   1.960       .  S
Mn326       O828   2.122   1_545  S
Mn326       O344   1.967       .  S
C327        C431   1.481       .  S
C327        O826   1.272       .  A
Mn328       O335   2.091       .  S
Mn328       O343   2.114       .  S
Mn328      O1360   2.118   1_455  S
Mn328       O333   1.947       .  S
C329        C362   1.490       .  S
C329       O1387   1.270       .  A
C329        O345   1.271       .  A
O330       Mn342   1.969       .  S
O330        C332   1.214       .  S
C332        C494   1.484       .  S
O333       Mn844   1.962       .  S
O334       Mn337   2.088       .  S
O335       C1381   1.271   1_455  A
Mn337      O1358   1.955   1_455  S
Mn337      O1396   1.962   1_455  S
O338      Mn1361   2.119   1_455  S
C339        C470   1.487       .  S
O340       Mn850   2.118   1_545  S
O341       Mn835   2.121   1_545  S
O341        C346   1.256       .  A
Mn342       O345   2.095       .  S
O343       C1369   1.275   1_455  A
O344      Mn1389   1.957       .  S
O344        C346   1.219       .  S
C346        C347   1.492       .  S
C347        C348   1.407       .  A
C347        C352   1.415       .  A
C348        C349   1.411       .  A
C348        H353   1.084       .  S
C349        C350   1.418       .  A
C349        C356   1.442       .  S
C350        C351   1.407       .  A
C351        C352   1.396       .  A
C351        H354   1.084       .  S
C352        C355   1.446       .  S
C355        N357   1.157       .  T
C356        N358   1.157       .  T
C359        C360   1.401       .  A
C359       C1416   1.409       .  A
C360        C361   1.398       .  A
C360        H365   1.085       .  S
C361        C362   1.417       .  A
C361        C368   1.444       .  S
C362       C1415   1.410       .  A
C363       C1414   1.411   1_455  A
C363        C364   1.404       .  A
C363        H366   1.083       .  S
C364       C1411   1.408   1_455  A
C364        C367   1.444       .  S
C367        N369   1.157       .  T
C368        N370   1.157       .  T
C371        C372   1.403       .  A
C371       C1428   1.412       .  A
C372        C373   1.394       .  A
C372        H377   1.085       .  S
C373        C374   1.413       .  A
C373        C380   1.445       .  S
C374       C1427   1.409       .  A
C375       C1426   1.409       .  A
C375        C376   1.407       .  A
C375        H378   1.084   1_655  S
C376       C1423   1.412       .  A
C376        C379   1.444   1_655  S
C379        N381   1.157       .  T
C380        N382   1.157       .  T
C383       C1436   1.409       .  A
C383        C388   1.419       .  A
C384       C1435   1.408   1_455  A
C384        C385   1.405       .  A
C384        H389   1.084       .  S
C385       C1438   1.410   1_455  A
C385        C392   1.443       .  S
C386       C1437   1.410       .  A
C386        C387   1.399       .  A
C387        C388   1.397       .  A
C387        H390   1.083       .  S
C388        C391   1.445       .  S
C391        N393   1.157       .  T
C392        N394   1.157       .  T
C395        C396   1.408       .  A
C395       C1452   1.416       .  A
C396        C397   1.405       .  A
C396        H401   1.083       .  S
C397        C404   1.444       .  S
C398       C1188   1.403   1_556  A
C399       C1187   1.402   1_655  A
C399        C400   1.395       .  A
C400       C1447   1.415       .  A
C400        C403   1.445       .  S
C403        N405   1.157       .  T
C407        C934   1.399       .  A
C407        C412   1.410       .  A
C408        C933   1.405       .  A
C408        C409   1.398       .  A
C408        H413   1.082   1_565  S
C409        C936   1.413       .  A
C409        C416   1.445   1_565  S
C410        C935   1.418       .  A
C410        C411   1.411       .  A
C411        C412   1.409       .  A
C411        H414   1.085       .  S
C412        C415   1.443       .  S
C415        N417   1.157       .  T
C416        N418   1.157       .  T
C419        C946   1.404       .  A
C419        C424   1.410       .  A
C420        C945   1.404   1_545  A
C420        C421   1.395       .  A
C420        H425   1.085       .  S
C421        C948   1.411   1_545  A
C421        C428   1.445       .  S
C422        C947   1.412       .  A
C422        C423   1.409       .  A
C423        C424   1.407       .  A
C423        H426   1.085       .  S
C424        C427   1.443       .  S
C427        N429   1.157       .  T
C428        N430   1.157       .  T
C431        C958   1.404       .  A
C431        C436   1.417       .  A
C432        C957   1.404       .  A
C432        C433   1.407       .  A
C432        H437   1.086   1_565  S
C433        C960   1.414       .  A
C433        C440   1.443   1_565  S
C434        C959   1.411       .  A
C434        C435   1.401       .  A
C435        C436   1.397       .  A
C435        H438   1.086       .  S
C436        C439   1.446       .  S
C439        N441   1.158       .  T
C440        N442   1.157       .  T
C443        C444   1.404       .  A
C443        C448   1.419       .  A
C444        C445   1.392       .  A
C444        H449   1.084       .  S
C445        C446   1.418       .  A
C445        C452   1.447       .  S
C446        C447   1.406       .  A
C447        C448   1.409       .  A
C447        H450   1.084       .  S
C448        C451   1.443       .  S
C451        N453   1.157       .  T
C452        N980   1.158       .  T
N454        C978   1.157   1_545  T
C455        C456   1.401       .  A
C455        C460   1.415       .  A
C456        C983   1.397       .  A
C456        H987   1.086       .  S
C457        C982   1.397       .  A
C457        C721   1.416       .  A
C457        C464   1.446   1_565  S
C458        C720   1.417   1_556  A
C459        C460   1.403       .  A
C460        C463   1.444       .  S
H461        C982   1.084       .  S
C463        N465   1.157       .  T
C467        C468   1.397       .  A
C467        C472   1.418       .  A
C468        C469   1.390       .  A
C468        H473   1.085       .  S
C469        C470   1.426       .  A
C469        C476   1.449       .  S
C470        C471   1.402       .  A
C471        C472   1.407       .  A
C471        H474   1.084       .  S
C472        C475   1.442       .  S
C475        N477   1.157       .  T
C476        N478   1.158       .  T
C479        C480   1.406       .  A
C479        C484   1.415       .  A
C480        C481   1.402       .  A
C480        H485   1.084       .  S
C481        C482   1.412       .  A
C481        C488   1.443       .  S
C482        C483   1.403       .  A
C483        C484   1.400       .  A
C483        H486   1.084       .  S
C484        C487   1.445       .  S
C487        N489   1.157       .  T
C488        N490   1.157       .  T
C491        C492   1.410       .  A
C491        C496   1.413       .  A
C492        C493   1.409       .  A
C492        H497   1.085       .  S
C493        C494   1.411       .  A
C493        C500   1.443       .  S
C494        C495   1.404       .  A
C495        C496   1.391       .  A
C495        H498   1.085       .  S
C496        C499   1.446       .  S
C499        N501   1.157       .  T
C500        N502   1.157       .  T
C503        C504   1.410       .  A
C503        C508   1.422       .  A
C504        C505   1.403       .  A
C504        H509   1.084       .  S
C505        C506   1.407       .  A
C505        C512   1.443       .  S
C506        C507   1.395       .  A
C507        C508   1.395       .  A
C507        H510   1.086       .  S
C508        C511   1.444       .  S
C511        N513   1.157       .  T
C512        N514   1.157       .  T
C515        C516   1.404       .  A
C515        C520   1.416       .  A
C516        C517   1.398       .  A
C516        H521   1.085       .  S
C517        C524   1.445       .  S
C519        C520   1.402       .  A
C520        C523   1.445       .  S
C523        N525   1.157       .  T
C524        N526   1.157       .  T
C527        N528   1.354       .  A
C527        N532   1.353       .  A
C527        C769   1.472       .  S
N528        C529   1.361       .  A
C529        N530   1.365       .  A
C529        C778   1.485       .  S
N530        C531   1.361       .  A
C531        N532   1.357       .  A
C531        C754   1.496       .  S
C533        N534   1.357       .  A
C533        N538   1.358       .  A
C533        C745   1.487       .  S
N534        C535   1.358       .  A
C535        N536   1.352       .  A
C535        C730   1.483       .  S
N536        C537   1.357       .  A
C537        N538   1.362       .  A
C537        C781   1.481       .  S
C539        N540   1.351       .  A
C539        N544   1.355       .  A
C539        C697   1.471       .  S
N540        C541   1.356       .  A
C541        N542   1.361       .  A
C541        C706   1.496       .  S
N542        C543   1.367       .  A
C543        N544   1.362       .  A
C543        C718   1.489       .  S
C545        N546   1.360       .  A
C545        N550   1.355       .  A
C545        C670   1.480       .  S
N546        C547   1.364       .  A
C547        N548   1.358       .  A
C547        C721   1.481       .  S
N548        C549   1.353       .  A
C549        N550   1.354       .  A
C549        C685   1.487       .  S
C551        N552   1.355       .  A
C551        N556   1.358       .  A
C551        C649   1.475       .  S
N552        C553   1.356       .  A
C553        N554   1.357       .  A
C553        C637   1.488       .  S
N554        C555   1.361       .  A
C555        N556   1.364       .  A
C555        C658   1.489       .  S
C557        N558   1.354       .  A
C557        N562   1.357       .  A
C557        C622   1.477       .  S
N558        C559   1.357       .  A
C559        N560   1.361       .  A
C559        C613   1.497       .  S
N560        C561   1.367       .  A
C561        N562   1.363       .  A
C561        C661   1.502       .  S
O563       Mn589   2.091       .  S
C564        C742   1.477       .  S
C564        O597   1.271       .  A
C564        O594   1.272       .  A
O565       Mn572   2.176       .  S
O565       Mn583   2.112       .  S
O565       Mn587   2.186       .  S
O566       Mn600   2.109       .  S
O566        C576   1.275       .  A
O567       Mn583   2.072       .  S
O567        C590   1.266       .  A
O568       Mn587   2.128       .  S
O568        C595   1.255       .  A
O569      Mn1652   1.944       .  S
O569       Mn589   1.947       .  S
O569        C585   1.214       .  S
C570        C709   1.492       .  S
C570        O573   1.254       .  A
C570        O596   1.216       .  S
O571      Mn1643   2.116       .  S
O571       Mn572   2.182       .  S
O571       Mn605   2.102       .  S
O571       Mn587   2.173       .  S
Mn572      O1653   2.125       .  S
Mn572       O577   2.145       .  S
Mn572      O1104   2.184   1_565  S
O573      Mn1639   2.123   1_455  S
O574       Mn581   2.080       .  S
O574        C576   1.268       .  A
C575        C682   1.479       .  S
C575        O601   1.255       .  A
C575        O588   1.238       .  A
C576        C766   1.499       .  S
O577        C602   1.257       .  A
O578      Mn1098   2.176   1_455  S
O578       Mn581   2.106       .  S
O578       Mn600   2.129       .  S
O578      Mn1113   2.166   1_455  S
O579       Mn583   2.004       .  S
O579       Mn605   2.005       .  S
O579        C602   1.231       .  A
C580        C646   1.489       .  S
C580       O1658   1.275       .  A
C580        O582   1.268       .  A
Mn581       O594   2.094       .  S
O582       Mn605   2.071       .  S
Mn583       O599   2.098       .  S
Mn583       O593   1.963       .  S
O584       Mn589   2.089       .  S
C585        C634   1.484       .  S
C585        O603   1.255       .  A
C586        C673   1.487       .  S
C586        O599   1.272       .  A
Mn587      O1625   2.127       .  S
Mn587      O1104   2.173   1_565  S
O588       Mn591   2.012       .  S
Mn589       O607   1.965       .  S
C590        C694   1.485       .  S
Mn591       O598   2.081       .  S
Mn591       O606   2.088       .  S
Mn591      O1623   2.114   1_455  S
Mn591       O596   1.963       .  S
C592        C625   1.497       .  S
C592       O1650   1.271       .  A
C592        O608   1.272       .  A
O593       Mn605   1.974       .  S
O593        C595   1.216       .  S
C595        C757   1.491       .  S
O597       Mn600   2.091       .  S
O598       C1644   1.268   1_455  A
Mn600      O1621   1.955   1_455  S
Mn600      O1659   1.967   1_455  S
O601      Mn1624   2.130   1_455  S
C602        C733   1.486       .  S
O604        C609   1.256       .  A
Mn605       O608   2.103       .  S
O606       C1632   1.270   1_455  A
O607      Mn1652   1.957       .  S
O607        C609   1.218       .  S
C609        C610   1.491       .  S
C610        C611   1.407       .  A
C610        C615   1.416       .  A
C611        C612   1.409       .  A
C611        H616   1.085       .  S
C612        C613   1.418       .  A
C612        C619   1.443       .  S
C613        C614   1.406       .  A
C614        C615   1.397       .  A
C614        H617   1.085       .  S
C615        C618   1.445       .  S
C618        N620   1.157       .  T
C619        N621   1.157       .  T
C622        C623   1.400       .  A
C622       C1679   1.408       .  A
C623        C624   1.400       .  A
C623        H628   1.086       .  S
C624        C625   1.419       .  A
C624        C631   1.443       .  S
C625       C1678   1.412       .  A
C626       C1677   1.408   1_455  A
C626        C627   1.404       .  A
C626        H629   1.084       .  S
C627       C1674   1.411   1_455  A
C627        C630   1.444       .  S
C630        N632   1.157       .  T
C631        N633   1.157       .  T
C634        C635   1.405       .  A
C634       C1691   1.411       .  A
C635        C636   1.394       .  A
C635        H640   1.085       .  S
C636        C637   1.414       .  A
C636        C643   1.445       .  S
C637       C1690   1.409       .  A
C638       C1689   1.407   1_455  A
C638        C639   1.404       .  A
C638        H641   1.084       .  S
C639       C1686   1.411   1_455  A
C639        C642   1.444       .  S
C642        N644   1.157       .  T
C643        N645   1.157       .  T
C646       C1699   1.408       .  A
C646        C651   1.420       .  A
C647       C1698   1.412   1_455  A
C647        C648   1.404       .  A
C647        H652   1.083       .  S
C648       C1701   1.408   1_455  A
C648        C655   1.444       .  S
C649       C1700   1.409       .  A
C649        C650   1.399       .  A
C650        C651   1.397       .  A
C650        H653   1.086       .  S
C651        C654   1.446       .  S
C654        N656   1.158       .  T
C655        N657   1.157       .  T
C658        C659   1.406       .  A
C658       C1715   1.416       .  A
C659        C660   1.401       .  A
C659        H664   1.085       .  S
C660        C924   1.417   1_554  A
C660        C667   1.445       .  S
C661        C923   1.421       .  A
C661       C1977   1.406       .  A
C662       C1976   1.406   1_554  A
C662        C663   1.401       .  A
C662        H928   1.083       .  S
C663       C1710   1.418       .  A
C663        C666   1.444       .  S
H665        C925   1.085       .  S
C666        N668   1.157       .  T
C667        N932   1.158   1_554  T
N669        C930   1.158       .  T
C670        C675   1.410       .  A
C671        C672   1.396       .  A
C671        H676   1.082       .  S
C672        C679   1.446       .  S
C673        C674   1.410       .  A
C674        C675   1.407       .  A
C674        H677   1.083       .  S
C675        C678   1.443       .  S
C678        N680   1.157       .  T
C679        N681   1.157       .  T
C682        C687   1.406       .  A
C683        C684   1.394       .  A
C683        H688   1.083       .  S
C684        C691   1.445       .  S
C685        C686   1.414       .  A
C686        C687   1.407       .  A
C686        H689   1.083       .  S
C687        C690   1.442       .  S
C690        N692   1.157       .  T
C691        N693   1.157       .  T
C694        C699   1.419       .  A
C695        C696   1.405       .  A
C695        H700   1.086       .  S
C696        C703   1.444       .  S
C697        C698   1.399       .  A
C698        C699   1.396       .  A
C698        H701   1.086       .  S
C699        C702   1.445       .  S
C702        N704   1.157       .  T
C703        N705   1.157       .  T
C706        C707   1.404       .  A
C706        C711   1.418       .  A
C707        C708   1.393       .  A
C707        H712   1.084       .  S
C708        C709   1.418       .  A
C708        C715   1.446       .  S
C709        C710   1.408       .  A
C710        C711   1.411       .  A
C710        H713   1.083       .  S
C711        C714   1.443       .  S
C714        N716   1.157       .  T
C718        C719   1.406       .  A
C718        C723   1.418       .  A
C720        C727   1.445       .  S
C721        C985   1.404       .  A
C722        C984   1.402   1_554  A
C722        C723   1.401       .  A
C722        H988   1.085   1_554  S
C723        C726   1.443       .  S
H725        C985   1.084       .  S
C726        N728   1.157   1_565  T
C727        N992   1.157   1_554  T
N729        C990   1.157       .  T
C730        C731   1.397       .  A
C730        C735   1.418       .  A
C731        C732   1.388       .  A
C731        H736   1.085       .  S
C732        C733   1.426       .  A
C732        C739   1.449       .  S
C733        C734   1.403       .  A
C734        C735   1.407       .  A
C734        H737   1.084       .  S
C735        C738   1.442       .  S
C738        N740   1.157       .  T
C739        N741   1.158       .  T
C742        C743   1.404       .  A
C742        C747   1.411       .  A
C743        C744   1.404       .  A
C743        H748   1.084       .  S
C744        C745   1.416       .  A
C744        C751   1.443       .  S
C745        C746   1.406       .  A
C746        C747   1.398       .  A
C746        H749   1.084       .  S
C747        C750   1.445       .  S
C750        N752   1.157       .  T
C751        N753   1.157       .  T
C754        C755   1.412       .  A
C754        C759   1.416       .  A
C755        C756   1.411       .  A
C755        H760   1.085       .  S
C756        C757   1.413       .  A
C756        C763   1.443       .  S
C757        C758   1.405       .  A
C758        C759   1.394       .  A
C758        H761   1.085       .  S
C759        C762   1.446       .  S
C762        N764   1.158       .  T
C763        N765   1.157       .  T
C766        C767   1.411       .  A
C766        C771   1.424       .  A
C767        C768   1.405       .  A
C767        H772   1.083       .  S
C768        C769   1.408       .  A
C768        C775   1.444       .  S
C769        C770   1.396       .  A
C770        C771   1.399       .  A
C770        H773   1.084       .  S
C771        C774   1.445       .  S
C774        N776   1.157       .  T
C775        N777   1.157       .  T
C778        C779   1.405       .  A
C778        C783   1.415       .  A
C779        C780   1.400       .  A
C779        H784   1.084       .  S
C780       C1044   1.417   1_554  A
C780        C787   1.446       .  S
C781       C1043   1.416       .  A
C781       C1045   1.403       .  A
C782       C1044   1.402   1_554  A
C782        C783   1.398       .  A
C782       H1048   1.084       .  S
C783        C786   1.443       .  S
H785       C1045   1.084       .  S
C786        N788   1.157       .  T
C787        N789   1.158   1_554  T
C790        N791   1.353       .  A
C790        N795   1.355       .  A
C790       C1032   1.469       .  S
N791        C792   1.358       .  A
C792        N793   1.362       .  A
C792       C1041   1.480       .  S
N793        C794   1.358       .  A
C794        N795   1.359       .  A
C794       C1017   1.481       .  S
C796        N797   1.354       .  A
C796        N801   1.359       .  A
C796       C1008   1.480       .  S
N797        C798   1.358       .  A
C798        N799   1.352       .  A
C798        C993   1.483       .  S
N799        C800   1.357       .  A
C800        N801   1.364       .  A
C800       C1044   1.482       .  S
C802        N803   1.354       .  A
C802        N807   1.359       .  A
C802        C960   1.482       .  S
N803        C804   1.356       .  A
C804        N805   1.357       .  A
C804        C969   1.494       .  S
N805        C806   1.363       .  A
C806        N807   1.363       .  A
C806        C981   1.483       .  S
C808        N809   1.361       .  A
C808        N813   1.360       .  A
C808        C933   1.492       .  S
N809        C810   1.363       .  A
C810        N811   1.359       .  A
C810        C984   1.483       .  S
N811        C812   1.355       .  A
C812        N813   1.359       .  A
C812        C948   1.484       .  S
C814        N815   1.358       .  A
C814        N819   1.360       .  A
C814        C912   1.481       .  S
N815        C816   1.358       .  A
C816        N817   1.357       .  A
C816        C900   1.487       .  S
N817        C818   1.361       .  A
C818        N819   1.365       .  A
C818        C921   1.500       .  S
C820        N821   1.354       .  A
C820        N825   1.355       .  A
C820        C885   1.479       .  S
N821        C822   1.358       .  A
C822        N823   1.361       .  A
C822        C876   1.501       .  S
N823        C824   1.367       .  A
C824        N825   1.361       .  A
C824        C924   1.488       .  S
O826       Mn852   2.100       .  S
C827       C1005   1.487       .  S
C827        O860   1.268       .  A
C827        O857   1.274       .  A
O828       Mn835   2.177       .  S
O828       Mn846   2.113       .  S
O828       Mn850   2.188       .  S
O829       Mn863   2.098       .  S
O829        C839   1.274       .  A
O830       Mn846   2.072       .  S
O830        C853   1.266       .  A
O831       Mn850   2.122       .  S
O831        C858   1.254       .  A
O832      Mn1915   1.961       .  S
O832       Mn852   1.958       .  S
O832        C848   1.217       .  S
C833        C972   1.490       .  S
C833        O836   1.253       .  A
C833        O859   1.214       .  S
O834      Mn1906   2.122       .  S
O834       Mn835   2.182       .  S
O834       Mn868   2.107       .  S
O834       Mn850   2.173       .  S
Mn835      O1916   2.113       .  S
Mn835       O840   2.129       .  S
Mn835      O1367   2.172   1_565  S
O836      Mn1902   2.119   1_455  S
O837       Mn844   2.084       .  S
O837        C839   1.269       .  A
C838        C945   1.481       .  S
C838        O864   1.254       .  A
C838        O851   1.216       .  S
C839       C1029   1.495       .  S
O840        C865   1.255       .  A
O841      Mn1361   2.179   1_455  S
O841       Mn844   2.115       .  S
O841       Mn863   2.118       .  S
O841      Mn1376   2.172   1_455  S
O842       Mn846   2.007       .  S
O842       Mn868   2.007       .  S
O842        C865   1.233       .  A
C843        C909   1.495       .  S
C843       O1921   1.276       .  A
C843        O845   1.269       .  A
Mn844       O857   2.111       .  S
O845       Mn868   2.081       .  S
Mn846       O862   2.098       .  S
Mn846       O856   1.972       .  S
O847       Mn852   2.091       .  S
C848        C897   1.482       .  S
C848        O866   1.254       .  A
C849        C936   1.485       .  S
C849        O862   1.272       .  A
Mn850      O1888   2.126       .  S
Mn850      O1367   2.171   1_565  S
O851       Mn854   1.962       .  S
Mn852       O870   1.951       .  S
C853        C957   1.481       .  S
Mn854       O861   2.095       .  S
Mn854       O869   2.118       .  S
Mn854      O1886   2.123   1_455  S
Mn854       O859   1.947       .  S
C855        C888   1.489       .  S
C855       O1913   1.271       .  A
C855        O871   1.270       .  A
O856       Mn868   1.972       .  S
O856        C858   1.215       .  S
C858       C1020   1.481       .  S
O860       Mn863   2.077       .  S
O861       C1907   1.272   1_455  A
Mn863      O1884   1.948   1_455  S
Mn863      O1922   1.953   1_455  S
O864      Mn1887   2.119   1_455  S
C865        C996   1.480       .  S
O867        C872   1.257       .  A
Mn868       O871   2.090       .  S
O869       C1895   1.275   1_455  A
O870      Mn1915   1.951       .  S
O870        C872   1.215       .  S
C872        C873   1.494       .  S
C873        C874   1.406       .  A
C873        C878   1.418       .  A
C874        C875   1.411       .  A
C874        H879   1.084       .  S
C875        C876   1.420       .  A
C875        C882   1.442       .  S
C876        C877   1.406       .  A
C877        C878   1.393       .  A
C877        H880   1.084       .  S
C878        C881   1.445       .  S
C881        N883   1.157       .  T
C882        N884   1.157       .  T
C885        C886   1.400       .  A
C885       C1942   1.411       .  A
C886        C887   1.396       .  A
C886        H891   1.086       .  S
C887        C888   1.417       .  A
C887        C894   1.444       .  S
C888       C1941   1.409       .  A
C889       C1940   1.412   1_455  A
C889        C890   1.405       .  A
C889        H892   1.084       .  S
C890       C1937   1.408       .  A
C890        C893   1.443       .  S
C893        N895   1.157       .  T
C894        N896   1.157       .  T
C897        C898   1.404       .  A
C897       C1954   1.411       .  A
C898        C899   1.396       .  A
C898        H903   1.083       .  S
C899        C900   1.413       .  A
C899        C906   1.445       .  S
C900       C1953   1.409       .  A
C901       C1952   1.410   1_455  A
C901        C902   1.408       .  A
C901        H904   1.084       .  S
C902       C1949   1.411   1_455  A
C902        C905   1.443       .  S
C905        N907   1.157       .  T
C906        N908   1.157       .  T
C909       C1962   1.409       .  A
C909        C914   1.421       .  A
C910       C1961   1.408   1_455  A
C910        C911   1.409       .  A
C910        H915   1.084       .  S
C911       C1964   1.414       .  A
C911        C918   1.443       .  S
C912       C1963   1.410       .  A
C912        C913   1.400       .  A
C913        C914   1.400       .  A
C913        H916   1.084       .  S
C914        C917   1.445       .  S
C917        N919   1.157       .  T
C918        N920   1.157       .  T
C921        C922   1.408       .  A
C921       C1978   1.419       .  A
C922        C923   1.404       .  A
C922        H927   1.086       .  S
C923        C930   1.444       .  S
C924       C1714   1.403   1_556  A
C925       C1713   1.405       .  A
C925        C926   1.400       .  A
C926       C1973   1.418       .  A
C926        C929   1.444       .  S
C929        N931   1.157       .  T
C933        C938   1.417       .  A
C934        C935   1.397       .  A
C934        H939   1.084       .  S
C935        C942   1.445       .  S
C936        C937   1.406       .  A
C937        C938   1.408       .  A
C937        H940   1.084       .  S
C938        C941   1.443       .  S
C941        N943   1.157       .  T
C942        N944   1.157       .  T
C945        C950   1.410       .  A
C946        C947   1.393       .  A
C946        H951   1.086       .  S
C947        C954   1.445       .  S
C948        C949   1.409       .  A
C949        C950   1.406       .  A
C949        H952   1.085       .  S
C950        C953   1.443       .  S
C953        N955   1.157       .  T
C954        N956   1.157       .  T
C957        C962   1.415       .  A
C958        C959   1.402       .  A
C958        H963   1.086       .  S
C959        C966   1.443       .  S
C960        C961   1.402       .  A
C961        C962   1.396       .  A
C961        H964   1.086       .  S
C962        C965   1.447       .  S
C965        N967   1.158       .  T
C966        N968   1.157       .  T
C969        C970   1.404       .  A
C969        C974   1.419       .  A
C970        C971   1.391       .  A
C970        H975   1.084       .  S
C971        C972   1.418       .  A
C971        C978   1.446       .  S
C972        C973   1.407       .  A
C973        C974   1.408       .  A
C973        H976   1.083       .  S
C974        C977   1.443       .  S
C977        N979   1.157       .  T
C981        C982   1.403       .  A
C981        C986   1.414       .  A
C983        C990   1.445       .  S
C985        C986   1.402       .  A
C986        C989   1.444       .  S
C989        N991   1.157       .  T
C993        C994   1.398       .  A
C993        C998   1.419       .  A
C994        C995   1.386       .  A
C994        H999   1.084       .  S
C995        C996   1.423       .  A
C995       C1002   1.449       .  S
C996        C997   1.402       .  A
C997        C998   1.405       .  A
C997       H1000   1.084       .  S
C998       C1001   1.442       .  S
C1001      N1003   1.157       .  T
C1002      N1004   1.158       .  T
C1005      C1006   1.407       .  A
C1005      C1010   1.418       .  A
C1006      C1007   1.406       .  A
C1006      H1011   1.084       .  S
C1007      C1008   1.412       .  A
C1007      C1014   1.443       .  S
C1008      C1009   1.401       .  A
C1009      C1010   1.398       .  A
C1009      H1012   1.085       .  S
C1010      C1013   1.446       .  S
C1013      N1015   1.158       .  T
C1014      N1016   1.157       .  T
C1017      C1018   1.408       .  A
C1017      C1022   1.409       .  A
C1018      C1019   1.408       .  A
C1018      H1023   1.085       .  S
C1019      C1020   1.412       .  A
C1019      C1026   1.444       .  S
C1020      C1021   1.404       .  A
C1021      C1022   1.393       .  A
C1021      H1024   1.083       .  S
C1022      C1025   1.445       .  S
C1025      N1027   1.157       .  T
C1026      N1028   1.157       .  T
C1029      C1030   1.410       .  A
C1029      C1034   1.424       .  A
C1030      C1031   1.400       .  A
C1030      H1035   1.085       .  S
C1031      C1032   1.406       .  A
C1031      C1038   1.444       .  S
C1032      C1033   1.397       .  A
C1033      C1034   1.401       .  A
C1033      H1036   1.086       .  S
C1034      C1037   1.445       .  S
C1037      N1039   1.157       .  T
C1038      N1040   1.157       .  T
C1041      C1042   1.403       .  A
C1041      C1046   1.415       .  A
C1042      C1043   1.398       .  A
C1042      H1047   1.084       .  S
C1043      C1050   1.445       .  S
C1045      C1046   1.398       .  A
C1046      C1049   1.445       .  S
C1049      N1051   1.157       .  T
C1050      N1052   1.158       .  T
C1053      N1054   1.356       .  A
C1053      N1058   1.352       .  A
C1053      C1295   1.470       .  S
N1054      C1055   1.361       .  A
C1055      N1056   1.362       .  A
C1055      C1304   1.483       .  S
N1056      C1057   1.359       .  A
C1057      N1058   1.356       .  A
C1057      C1280   1.480       .  S
C1059      N1060   1.357       .  A
C1059      N1064   1.357       .  A
C1059      C1271   1.475       .  S
N1060      C1061   1.361       .  A
C1061      N1062   1.354       .  A
C1061      C1256   1.489       .  S
N1062      C1063   1.358       .  A
C1063      N1064   1.361       .  A
C1063      C1307   1.479       .  S
C1065      N1066   1.353       .  A
C1065      N1070   1.354       .  A
C1065      C1223   1.471       .  S
N1066      C1067   1.359       .  A
C1067      N1068   1.359       .  A
C1067      C1232   1.500       .  S
N1068      C1069   1.365       .  A
C1069      N1070   1.359       .  A
C1069      C1244   1.489       .  S
C1071      N1072   1.364       .  A
C1071      N1076   1.356       .  A
C1071      C1196   1.499       .  S
N1072      C1073   1.367       .  A
C1073      N1074   1.360       .  A
C1073      C1247   1.488       .  S
N1074      C1075   1.353       .  A
C1075      N1076   1.353       .  A
C1075      C1211   1.478       .  S
C1077      N1078   1.360   1_455  A
C1077      N1082   1.363       .  A
C1077      C1175   1.495   1_455  S
N1078      C1079   1.358       .  A
C1079      N1080   1.356   1_655  A
C1079      C1163   1.489       .  S
N1080      C1081   1.362       .  A
C1081      N1082   1.367       .  A
C1081      C1184   1.498       .  S
C1083      N1084   1.353       .  A
C1083      N1088   1.359       .  A
C1083      C1148   1.479       .  S
N1084      C1085   1.356   1_455  A
C1085      N1086   1.356   1_655  A
C1085      C1139   1.496       .  S
N1086      C1087   1.363       .  A
C1087      N1088   1.362       .  A
C1087      C1187   1.484       .  S
O1089     Mn1115   2.102       .  S
O1089      C1642   1.271   1_545  A
C1090      C1268   1.498       .  S
C1090      O1123   1.267       .  A
C1090      O1120   1.276       .  A
O1091     Mn1098   2.172       .  S
O1091     Mn1109   2.117       .  S
O1091     Mn1113   2.173       .  S
O1091     Mn1641   2.119       .  S
O1092     Mn1126   2.105       .  S
O1092      C1102   1.274       .  A
O1093     Mn1109   2.083       .  S
O1093      C1116   1.270       .  A
O1094     Mn1113   2.099       .  S
O1094      C1121   1.252       .  A
O1095     Mn1115   1.955       .  S
O1095      C1111   1.214       .  S
C1096      C1235   1.494       .  S
C1096      O1099   1.255       .  A
C1096      O1122   1.213       .  S
O1097     Mn1098   2.174       .  S
O1097     Mn1131   2.107       .  S
O1097     Mn1113   2.173       .  S
Mn1098     O1103   2.140       .  S
Mn1098     O1656   2.099       .  S
O1100     Mn1107   2.077       .  S
O1100      C1102   1.268       .  A
C1101      C1208   1.479       .  S
C1101      O1127   1.253       .  A
C1101      O1114   1.217       .  S
C1102      C1292   1.495       .  S
O1103      C1128   1.255       .  A
O1104     Mn1107   2.105       .  S
O1104     Mn1126   2.122       .  S
O1105     Mn1109   1.933       .  S
O1105     Mn1131   1.944       .  S
O1105      C1128   1.208       .  S
C1106      C1172   1.490       .  S
C1106      O1108   1.272       .  A
Mn1107     O1120   2.116       .  S
Mn1107     O1648   1.966   1_545  S
Mn1107     O1640   1.941   1_545  S
O1108     Mn1131   2.091       .  S
Mn1109     O1125   2.109       .  S
Mn1109     O1119   1.967       .  S
O1110     Mn1115   2.095       .  S
O1110      C1638   1.272   1_545  A
C1111      C1160   1.485       .  S
C1111      O1129   1.255       .  A
C1112      C1199   1.477       .  S
C1112      O1636   1.270       .  A
C1112      O1125   1.273       .  A
Mn1113     O1655   2.102       .  S
O1114     Mn1633   1.946       .  S
O1114     Mn1117   1.959       .  S
Mn1115     O1617   2.113   1_545  S
Mn1115     O1133   1.950       .  S
C1116      C1220   1.492       .  S
C1116      O1615   1.273       .  A
Mn1117     O1124   2.068       .  S
Mn1117     O1132   2.106       .  S
Mn1117     O1122   1.934       .  S
C1118      C1151   1.482       .  S
C1118      O1134   1.275       .  A
O1119     Mn1131   1.968       .  S
O1119      C1121   1.219       .  S
C1121      C1283   1.477       .  S
O1122     Mn1633   1.953       .  S
O1123     Mn1126   2.076       .  S
C1128      C1259   1.488       .  S
O1129     Mn1639   2.130   1_545  S
O1130     Mn1624   2.136   1_545  S
O1130      C1135   1.257       .  A
Mn1131     O1134   2.115       .  S
O1133      C1135   1.211       .  S
C1135      C1136   1.491       .  S
C1136      C1137   1.405       .  A
C1136      C1141   1.421       .  A
C1137      C1138   1.408       .  A
C1137      H1142   1.084       .  S
C1138      C1139   1.421       .  A
C1138      C1145   1.443       .  S
C1139      C1140   1.403       .  A
C1140      C1141   1.391       .  A
C1140      H1143   1.084       .  S
C1141      C1144   1.447       .  S
C1144      N1146   1.157       .  T
C1145      N1147   1.157       .  T
C1148      C1149   1.403   1_455  A
C1149      C1150   1.404       .  A
C1149      H1154   1.085       .  S
C1150      C1151   1.412       .  A
C1150      C1157   1.437       .  S
C1152      C1153   1.396       .  A
C1152      H1155   1.086       .  S
C1153      C1156   1.445       .  S
C1156      N1158   1.157       .  T
C1157      N1159   1.155       .  T
C1160      C1161   1.405       .  A
C1161      C1162   1.397       .  A
C1161      H1166   1.084       .  S
C1162      C1163   1.412       .  A
C1162      C1169   1.444       .  S
C1164      C1165   1.407       .  A
C1164      H1167   1.083       .  S
C1165      C1168   1.444       .  S
C1168      N1170   1.157       .  T
C1169      N1171   1.157       .  T
C1172      C1177   1.415       .  A
C1173      C1174   1.413       .  A
C1173      H1178   1.085       .  S
C1174      C1181   1.443       .  S
C1175      C1176   1.404       .  A
C1176      C1177   1.399       .  A
C1176      H1179   1.084       .  S
C1177      C1180   1.446       .  S
C1180      N1182   1.157       .  T
C1181      N1183   1.157       .  T
C1184      C1185   1.407       .  A
C1185      C1186   1.406   1_455  A
C1185      H1190   1.087   1_455  S
C1186      C1450   1.421   1_655  A
C1186      C1193   1.444       .  S
C1187      C1449   1.415       .  A
C1188      C1189   1.400       .  A
C1188      H1454   1.083       .  S
C1189      C1192   1.444       .  S
H1191      C1451   1.081       .  S
C1192      N1194   1.157       .  T
C1193      N1458   1.158   1_554  T
N1195      C1456   1.158       .  T
C1196      C1723   1.410       .  A
C1196      C1201   1.419       .  A
C1197      C1722   1.401       .  A
C1197      C1198   1.400   1_565  A
C1197      H1202   1.084   1_565  S
C1198      C1725   1.419   1_545  A
C1198      C1205   1.445       .  S
C1199      C1724   1.407       .  A
C1199      C1200   1.404       .  A
C1200      C1201   1.410       .  A
C1200      H1203   1.083       .  S
C1201      C1204   1.441       .  S
C1204      N1206   1.157       .  T
C1205      N1207   1.158       .  T
C1208      C1735   1.404       .  A
C1208      C1213   1.412       .  A
C1209      C1734   1.405   1_545  A
C1209      C1210   1.393   1_545  A
C1209      H1214   1.086       .  S
C1210      C1737   1.412       .  A
C1210      C1217   1.445   1_565  S
C1211      C1736   1.410       .  A
C1211      C1212   1.407       .  A
C1212      C1213   1.406       .  A
C1212      H1215   1.084       .  S
C1213      C1216   1.442       .  S
C1216      N1218   1.157       .  T
C1217      N1219   1.157       .  T
C1220      C1747   1.409       .  A
C1220      C1225   1.421       .  A
C1221      C1746   1.405       .  A
C1221      C1222   1.406       .  A
C1221      H1226   1.086   1_565  S
C1222      C1749   1.413       .  A
C1222      C1229   1.443   1_565  S
C1223      C1748   1.407       .  A
C1223      C1224   1.399       .  A
C1224      C1225   1.401       .  A
C1224      H1227   1.083       .  S
C1225      C1228   1.445       .  S
C1228      N1230   1.158       .  T
C1229      N1231   1.157       .  T
C1232      C1233   1.404       .  A
C1232      C1237   1.421       .  A
C1233      C1234   1.393       .  A
C1233      H1238   1.083       .  S
C1234      C1235   1.420       .  A
C1234      C1241   1.447       .  S
C1235      C1236   1.406       .  A
C1236      C1237   1.411       .  A
C1236      H1239   1.083       .  S
C1237      C1240   1.443       .  S
C1240      N1242   1.157       .  T
C1241      N1769   1.158       .  T
N1243      C1767   1.157       .  T
C1244      C1245   1.403       .  A
C1244      C1249   1.417       .  A
C1245      C1772   1.397       .  A
C1245      H1776   1.086       .  S
C1246      C1771   1.397       .  A
C1246      C2036   1.417   1_554  A
C1246      C1253   1.444   1_565  S
C1247      C2035   1.418       .  A
C1247      C1511   1.405       .  A
C1248      C1510   1.406   1_554  A
C1248      C1249   1.402       .  A
C1248      H1514   1.086   1_554  S
C1249      C1252   1.444       .  S
H1250      C1771   1.085   1_545  S
H1251      C1511   1.086       .  S
C1252      N1254   1.157       .  T
C1253      N1518   1.157   1_554  T
N1255      C1516   1.158       .  T
C1256      C1257   1.399       .  A
C1256      C1261   1.420       .  A
C1257      C1258   1.391       .  A
C1257      H1262   1.084       .  S
C1258      C1259   1.420       .  A
C1258      C1265   1.445       .  S
C1259      C1260   1.405       .  A
C1260      C1261   1.408       .  A
C1260      H1263   1.083       .  S
C1261      C1264   1.443       .  S
C1264      N1266   1.157       .  T
C1265      N1267   1.157       .  T
C1268      C1269   1.409       .  A
C1268      C1273   1.425       .  A
C1269      C1270   1.404       .  A
C1269      H1274   1.085       .  S
C1270      C1271   1.409       .  A
C1270      C1277   1.443       .  S
C1271      C1272   1.397       .  A
C1272      C1273   1.400       .  A
C1272      H1275   1.086       .  S
C1273      C1276   1.445       .  S
C1276      N1278   1.157       .  T
C1277      N1279   1.157       .  T
C1280      C1281   1.407       .  A
C1280      C1285   1.413       .  A
C1281      C1282   1.405       .  A
C1281      H1286   1.084       .  S
C1282      C1283   1.412       .  A
C1282      C1289   1.444       .  S
C1283      C1284   1.401       .  A
C1284      C1285   1.392       .  A
C1284      H1287   1.082       .  S
C1285      C1288   1.445       .  S
C1288      N1290   1.157       .  T
C1289      N1291   1.157       .  T
C1292      C1293   1.411       .  A
C1292      C1297   1.424       .  A
C1293      C1294   1.403       .  A
C1293      H1298   1.084       .  S
C1294      C1295   1.407       .  A
C1294      C1301   1.444       .  S
C1295      C1296   1.397       .  A
C1296      C1297   1.397       .  A
C1296      H1299   1.085       .  S
C1297      C1300   1.446       .  S
C1300      N1302   1.158       .  T
C1301      N1303   1.157       .  T
C1304      C1305   1.406       .  A
C1304      C1309   1.414       .  A
C1305      C1306   1.400       .  A
C1305      H1310   1.084       .  S
C1306      C1570   1.414   1_554  A
C1306      C1313   1.446       .  S
C1307      C1569   1.414       .  A
C1307      C1571   1.403       .  A
C1308      C1570   1.402   1_554  A
C1308      C1309   1.399       .  A
C1308      H1574   1.084       .  S
C1309      C1312   1.443       .  S
H1311      C1571   1.084       .  S
C1312      N1314   1.157       .  T
C1313      N1315   1.158   1_554  T
C1316      N1317   1.354       .  A
C1316      N1321   1.353       .  A
C1316      C1558   1.465       .  S
N1317      C1318   1.360       .  A
C1318      N1319   1.362       .  A
C1318      C1567   1.480       .  S
N1319      C1320   1.358       .  A
C1320      N1321   1.355       .  A
C1320      C1543   1.482       .  S
C1322      N1323   1.354       .  A
C1322      N1327   1.360       .  A
C1322      C1534   1.485       .  S
N1323      C1324   1.357       .  A
C1324      N1325   1.353       .  A
C1324      C1519   1.483       .  S
N1325      C1326   1.358       .  A
C1326      N1327   1.365       .  A
C1326      C1570   1.478       .  S
C1328      N1329   1.353       .  A
C1328      N1333   1.357       .  A
C1328      C1486   1.478       .  S
N1329      C1330   1.356       .  A
C1330      N1331   1.359       .  A
C1330      C1495   1.497       .  S
N1331      C1332   1.364       .  A
C1332      N1333   1.363       .  A
C1332      C1507   1.482       .  S
C1334      N1335   1.360       .  A
C1334      N1339   1.356       .  A
C1334      C1459   1.482       .  S
N1335      C1336   1.365       .  A
C1336      N1337   1.360       .  A
C1336      C1510   1.489       .  S
N1337      C1338   1.357       .  A
C1338      N1339   1.356       .  A
C1338      C1474   1.486       .  S
C1340      N1341   1.356       .  A
C1340      N1345   1.359       .  A
C1340      C1438   1.477       .  S
N1341      C1342   1.356       .  A
C1342      N1343   1.357       .  A
C1342      C1426   1.487       .  S
N1343      C1344   1.362       .  A
C1344      N1345   1.363       .  A
C1344      C1447   1.485       .  S
C1346      N1347   1.353       .  A
C1346      N1351   1.358       .  A
C1346      C1411   1.480       .  S
N1347      C1348   1.357       .  A
C1348      N1349   1.362       .  A
C1348      C1402   1.498       .  S
N1349      C1350   1.369       .  A
C1350      N1351   1.363       .  A
C1350      C1450   1.500   1_656  S
O1352     Mn1378   2.103   1_565  S
O1352      C1905   1.274       .  A
C1353      C1531   1.486       .  S
C1353      O1386   1.272       .  A
C1353      O1383   1.272       .  A
O1354     Mn1361   2.180       .  S
O1354     Mn1372   2.115       .  S
O1354     Mn1376   2.188       .  S
O1354     Mn1904   2.113       .  S
O1355     Mn1389   2.086       .  S
O1355      C1365   1.272       .  A
O1356     Mn1372   2.079       .  S
O1356      C1379   1.267       .  A
O1357     Mn1376   2.124       .  S
O1357      C1384   1.254       .  A
O1358     Mn1378   1.953       .  S
O1358      C1374   1.217       .  S
C1359      C1498   1.490       .  S
C1359      O1362   1.255       .  A
C1359      O1385   1.213       .  S
O1360     Mn1361   2.186       .  S
O1360     Mn1394   2.108       .  S
O1360     Mn1376   2.177       .  S
Mn1361     O1366   2.140       .  S
Mn1361     O1919   2.131       .  S
O1363     Mn1370   2.084       .  S
O1363      C1365   1.270       .  A
C1364      C1471   1.479       .  S
C1364      O1390   1.254       .  A
C1364      O1377   1.213       .  S
C1365      C1555   1.488       .  S
O1366      C1391   1.256       .  A
O1367     Mn1370   2.116       .  S
O1367     Mn1389   2.122       .  S
O1368     Mn1372   2.009       .  S
O1368     Mn1394   2.008       .  S
O1368      C1391   1.231       .  A
C1369      C1435   1.489       .  S
C1369      O1371   1.268       .  A
Mn1370     O1383   2.101       .  S
Mn1370     O1911   1.959   1_545  S
Mn1370     O1903   1.950   1_545  S
O1371     Mn1394   2.076       .  S
Mn1372     O1388   2.095       .  S
Mn1372     O1382   1.963       .  S
O1373     Mn1378   2.083   1_565  S
O1373      C1901   1.269       .  A
C1374      C1423   1.483       .  S
C1374      O1392   1.253       .  A
C1375      C1462   1.488       .  S
C1375      O1899   1.272       .  A
C1375      O1388   1.271       .  A
Mn1376     O1918   2.124       .  S
O1377     Mn1896   1.938       .  S
O1377     Mn1380   1.950       .  S
Mn1378     O1880   2.120   1_545  S
Mn1378     O1396   1.966       .  S
C1379      C1483   1.482       .  S
C1379      O1878   1.271       .  A
Mn1380     O1387   2.087       .  S
Mn1380     O1395   2.109       .  S
Mn1380     O1385   1.947       .  S
C1381      C1414   1.495       .  S
C1381      O1397   1.273       .  A
O1382     Mn1394   1.969       .  S
O1382      C1384   1.214       .  S
C1384      C1546   1.483       .  S
O1385     Mn1896   1.954       .  S
O1386     Mn1389   2.096       .  S
C1391      C1522   1.483       .  S
O1392     Mn1902   2.115   1_545  S
O1393     Mn1887   2.116   1_545  S
O1393      C1398   1.257       .  A
Mn1394     O1397   2.104       .  S
O1396      C1398   1.221       .  S
C1398      C1399   1.492       .  S
C1399      C1400   1.407       .  A
C1399      C1404   1.415       .  A
C1400      C1401   1.410       .  A
C1400      H1405   1.085   1_655  S
C1401      C1402   1.418       .  A
C1401      C1408   1.442   1_655  S
C1402      C1403   1.406       .  A
C1403      C1404   1.396       .  A
C1403      H1406   1.085       .  S
C1404      C1407   1.445       .  S
C1407      N1409   1.157       .  T
C1408      N1410   1.157       .  T
C1411      C1412   1.402       .  A
C1412      C1413   1.401       .  A
C1412      H1417   1.085       .  S
C1413      C1414   1.418       .  A
C1413      C1420   1.443       .  S
C1415      C1416   1.403       .  A
C1415      H1418   1.084       .  S
C1416      C1419   1.444       .  S
C1419      N1421   1.157       .  T
C1420      N1422   1.157       .  T
C1423      C1424   1.404       .  A
C1424      C1425   1.395       .  A
C1424      H1429   1.084       .  S
C1425      C1426   1.414       .  A
C1425      C1432   1.445       .  S
C1427      C1428   1.408       .  A
C1427      H1430   1.083       .  S
C1428      C1431   1.444       .  S
C1431      N1433   1.157       .  T
C1432      N1434   1.157       .  T
C1435      C1440   1.419       .  A
C1436      C1437   1.407       .  A
C1436      H1441   1.083       .  S
C1437      C1444   1.443       .  S
C1438      C1439   1.400       .  A
C1439      C1440   1.397       .  A
C1439      H1442   1.084       .  S
C1440      C1443   1.445       .  S
C1443      N1445   1.157       .  T
C1444      N1446   1.157       .  T
C1447      C1448   1.407   1_655  A
C1448      C1449   1.405       .  A
C1448      H1453   1.087       .  S
C1449      C1456   1.444       .  S
C1451      C1452   1.399       .  A
C1452      C1455   1.443       .  S
C1455      N1457   1.157       .  T
C1459      C1986   1.401       .  A
C1459      C1464   1.412       .  A
C1460      C1985   1.407       .  A
C1460      C1461   1.395       .  A
C1460      H1465   1.083   1_565  S
C1461      C1988   1.409       .  A
C1461      C1468   1.447   1_565  S
C1462      C1987   1.415       .  A
C1462      C1463   1.409       .  A
C1463      C1464   1.407       .  A
C1463      H1466   1.084       .  S
C1464      C1467   1.444       .  S
C1467      N1469   1.157       .  T
C1468      N1470   1.157       .  T
C1471      C1998   1.405       .  A
C1471      C1476   1.408       .  A
C1472      C1997   1.404   1_545  A
C1472      C1473   1.392       .  A
C1472      H1477   1.084       .  S
C1473      C2000   1.410   1_545  A
C1473      C1480   1.445       .  S
C1474      C1999   1.413       .  A
C1474      C1475   1.409       .  A
C1475      C1476   1.404       .  A
C1475      H1478   1.081       .  S
C1476      C1479   1.443       .  S
C1479      N1481   1.157       .  T
C1480      N1482   1.157       .  T
C1483      C2010   1.406       .  A
C1483      C1488   1.416       .  A
C1484      C2009   1.410       .  A
C1484      C1485   1.401       .  A
C1484      H1489   1.084   1_565  S
C1485      C2012   1.407       .  A
C1485      C1492   1.444   1_565  S
C1486      C2011   1.411       .  A
C1486      C1487   1.402       .  A
C1487      C1488   1.397       .  A
C1487      H1490   1.086       .  S
C1488      C1491   1.446       .  S
C1491      N1493   1.158       .  T
C1492      N1494   1.157       .  T
C1495      C1496   1.405       .  A
C1495      C1500   1.420       .  A
C1496      C1497   1.391       .  A
C1496      H1501   1.083       .  S
C1497      C1498   1.418       .  A
C1497      C1504   1.447       .  S
C1498      C1499   1.406       .  A
C1499      C1500   1.410       .  A
C1499      H1502   1.083       .  S
C1500      C1503   1.443       .  S
C1503      N1505   1.157       .  T
C1504      N2032   1.158       .  T
N1506      C2030   1.157       .  T
C1507      C1508   1.401       .  A
C1507      C1512   1.414       .  A
C1508      C2035   1.399       .  A
C1508      H2039   1.087       .  S
C1509      C2034   1.395       .  A
C1509      C1773   1.419       .  A
C1509      C1516   1.446       .  S
C1510      C1772   1.417   1_556  A
C1511      C1512   1.402       .  A
C1512      C1515   1.444       .  S
H1513      C2034   1.085       .  S
C1515      N1517   1.157       .  T
C1519      C1520   1.397       .  A
C1519      C1524   1.419       .  A
C1520      C1521   1.385       .  A
C1520      H1525   1.085       .  S
C1521      C1522   1.425       .  A
C1521      C1528   1.449       .  S
C1522      C1523   1.403       .  A
C1523      C1524   1.407       .  A
C1523      H1526   1.084       .  S
C1524      C1527   1.442       .  S
C1527      N1529   1.157       .  T
C1528      N1530   1.158       .  T
C1531      C1532   1.407       .  A
C1531      C1536   1.413       .  A
C1532      C1533   1.407       .  A
C1532      H1537   1.084       .  S
C1533      C1534   1.413       .  A
C1533      C1540   1.443       .  S
C1534      C1535   1.404       .  A
C1535      C1536   1.399       .  A
C1535      H1538   1.085       .  S
C1536      C1539   1.445       .  S
C1539      N1541   1.157       .  T
C1540      N1542   1.157       .  T
C1543      C1544   1.408       .  A
C1543      C1548   1.412       .  A
C1544      C1545   1.407       .  A
C1544      H1549   1.085       .  S
C1545      C1546   1.411       .  A
C1545      C1552   1.443       .  S
C1546      C1547   1.406       .  A
C1547      C1548   1.394       .  A
C1547      H1550   1.085       .  S
C1548      C1551   1.446       .  S
C1551      N1553   1.158       .  T
C1552      N1554   1.157       .  T
C1555      C1556   1.409       .  A
C1555      C1560   1.420       .  A
C1556      C1557   1.398       .  A
C1556      H1561   1.086       .  S
C1557      C1558   1.406       .  A
C1557      C1564   1.444       .  S
C1558      C1559   1.398       .  A
C1559      C1560   1.397       .  A
C1559      H1562   1.087       .  S
C1560      C1563   1.444       .  S
C1563      N1565   1.157       .  T
C1564      N1566   1.157       .  T
C1567      C1568   1.403       .  A
C1567      C1572   1.414       .  A
C1568      C1569   1.397       .  A
C1568      H1573   1.085       .  S
C1569      C1576   1.445       .  S
C1571      C1572   1.399       .  A
C1572      C1575   1.443       .  S
C1575      N1577   1.157       .  T
C1576      N1578   1.157       .  T
C1579      N1580   1.351       .  A
C1579      N1584   1.351       .  A
C1579      C1821   1.463       .  S
N1580      C1581   1.358       .  A
C1581      N1582   1.363       .  A
C1581      C1830   1.476       .  S
N1582      C1583   1.359       .  A
C1583      N1584   1.356       .  A
C1583      C1806   1.483       .  S
C1585      N1586   1.356       .  A
C1585      N1590   1.358       .  A
C1585      C1797   1.474       .  S
N1586      C1587   1.359       .  A
C1587      N1588   1.357       .  A
C1587      C1782   1.491       .  S
N1588      C1589   1.361       .  A
C1589      N1590   1.362       .  A
C1589      C1833   1.482       .  S
C1591      N1592   1.353       .  A
C1591      N1596   1.357       .  A
C1591      C1749   1.479       .  S
N1592      C1593   1.356       .  A
C1593      N1594   1.358       .  A
C1593      C1758   1.499       .  S
N1594      C1595   1.365       .  A
C1595      N1596   1.362       .  A
C1595      C1770   1.481       .  S
C1597      N1598   1.360       .  A
C1597      N1602   1.358       .  A
C1597      C1722   1.479       .  S
N1598      C1599   1.363       .  A
C1599      N1600   1.357       .  A
C1599      C1773   1.491       .  S
N1600      C1601   1.353       .  A
C1601      N1602   1.357       .  A
C1601      C1737   1.486       .  S
C1603      N1604   1.354       .  A
C1603      N1608   1.360   1_655  A
C1603      C1701   1.478       .  S
N1604      C1605   1.355       .  A
C1605      N1606   1.357       .  A
C1605      C1689   1.481       .  S
N1606      C1607   1.361   1_655  A
C1607      N1608   1.366       .  A
C1607      C1710   1.495       .  S
C1609      N1610   1.351       .  A
C1609      N1614   1.357   1_655  A
C1609      C1674   1.479       .  S
N1610      C1611   1.353       .  A
C1611      N1612   1.360       .  A
C1611      C1665   1.491       .  S
N1612      C1613   1.367   1_655  A
C1613      N1614   1.363       .  A
C1613      C1713   1.497       .  S
O1615     Mn1641   2.100       .  S
C1616      C1794   1.495       .  S
C1616      O1649   1.270       .  A
C1616      O1646   1.273       .  A
O1617     Mn1624   2.176       .  S
O1617     Mn1635   2.115       .  S
O1617     Mn1639   2.179       .  S
O1618     Mn1652   2.098       .  S
O1618      C1628   1.272       .  A
O1619     Mn1635   2.076       .  S
O1619      C1642   1.267       .  A
O1620     Mn1639   2.112       .  S
O1620      C1647   1.254       .  A
O1621     Mn1641   1.953       .  S
O1621      C1637   1.216       .  S
C1622      C1761   1.494       .  S
C1622      O1625   1.256       .  A
C1622      O1648   1.214       .  S
O1623     Mn1624   2.188       .  S
O1623     Mn1657   2.114       .  S
O1623     Mn1639   2.179       .  S
Mn1624     O1629   2.141       .  S
O1626     Mn1633   2.073       .  S
O1626      C1628   1.267       .  A
C1627      C1734   1.478       .  S
C1627      O1653   1.253       .  A
C1627      O1640   1.212       .  S
C1628      C1818   1.492       .  S
O1629      C1654   1.257       .  A
O1630     Mn1633   2.107       .  S
O1630     Mn1652   2.121       .  S
O1631     Mn1635   1.944       .  S
O1631     Mn1657   1.949       .  S
O1631      C1654   1.213       .  S
C1632      C1698   1.495       .  S
C1632      O1634   1.273       .  A
Mn1633     O1646   2.099       .  S
O1634     Mn1657   2.100       .  S
Mn1635     O1651   2.094       .  S
Mn1635     O1645   1.955       .  S
O1636     Mn1641   2.086       .  S
C1637      C1686   1.475       .  S
C1637      O1655   1.251       .  A
C1638      C1725   1.493       .  S
C1638      O1651   1.273       .  A
O1640     Mn1643   1.950       .  S
Mn1641     O1659   1.969       .  S
C1642      C1746   1.480       .  S
Mn1643     O1650   2.091       .  S
Mn1643     O1658   2.110       .  S
Mn1643     O1648   1.949       .  S
C1644      C1677   1.482       .  S
C1644      O1660   1.271       .  A
O1645     Mn1657   1.959       .  S
O1645      C1647   1.217       .  S
C1647      C1809   1.479       .  S
O1649     Mn1652   2.090       .  S
C1654      C1785   1.494       .  S
O1656      C1661   1.254       .  A
Mn1657     O1660   2.096       .  S
O1659      C1661   1.221       .  S
C1661      C1662   1.483       .  S
C1662      C1663   1.406       .  A
C1662      C1667   1.413       .  A
C1663      C1664   1.406       .  A
C1663      H1668   1.085   1_655  S
C1664      C1665   1.416       .  A
C1664      C1671   1.443   1_655  S
C1665      C1666   1.407       .  A
C1666      C1667   1.394       .  A
C1666      H1669   1.085       .  S
C1667      C1670   1.446       .  S
C1670      N1672   1.158       .  T
C1671      N1673   1.157       .  T
C1674      C1675   1.404       .  A
C1675      C1676   1.396       .  A
C1675      H1680   1.085       .  S
C1676      C1677   1.412       .  A
C1676      C1683   1.445       .  S
C1678      C1679   1.404       .  A
C1678      H1681   1.084       .  S
C1679      C1682   1.444       .  S
C1682      N1684   1.157       .  T
C1683      N1685   1.157       .  T
C1686      C1687   1.402       .  A
C1687      C1688   1.394       .  A
C1687      H1692   1.085       .  S
C1688      C1689   1.412       .  A
C1688      C1695   1.445       .  S
C1690      C1691   1.407       .  A
C1690      H1693   1.082       .  S
C1691      C1694   1.443       .  S
C1694      N1696   1.157       .  T
C1695      N1697   1.157       .  T
C1698      C1703   1.418       .  A
C1699      C1700   1.405       .  A
C1699      H1704   1.085       .  S
C1700      C1707   1.443       .  S
C1701      C1702   1.402       .  A
C1702      C1703   1.401       .  A
C1702      H1705   1.085       .  S
C1703      C1706   1.444       .  S
C1706      N1708   1.157       .  T
C1707      N1709   1.157       .  T
C1710      C1711   1.406       .  A
C1711      C1712   1.403       .  A
C1711      H1716   1.085   1_455  S
C1712      C1976   1.420   1_554  A
C1712      C1719   1.445   1_455  S
C1713      C1975   1.419       .  A
C1714      C1715   1.399       .  A
C1714      H1980   1.083       .  S
C1715      C1718   1.443       .  S
H1717      C1977   1.086       .  S
C1718      N1720   1.157       .  T
C1719      N1984   1.158   1_554  T
N1721      C1982   1.158       .  T
C1722      C1727   1.409       .  A
C1723      C1724   1.395       .  A
C1723      H1728   1.082       .  S
C1724      C1731   1.447       .  S
C1725      C1726   1.410       .  A
C1726      C1727   1.404       .  A
C1726      H1729   1.084       .  S
C1727      C1730   1.444       .  S
C1730      N1732   1.157       .  T
C1731      N1733   1.157       .  T
C1734      C1739   1.408       .  A
C1735      C1736   1.391       .  A
C1735      H1740   1.084       .  S
C1736      C1743   1.445       .  S
C1737      C1738   1.411       .  A
C1738      C1739   1.405       .  A
C1738      H1741   1.085       .  S
C1739      C1742   1.444       .  S
C1742      N1744   1.157       .  T
C1743      N1745   1.157       .  T
C1746      C1751   1.414       .  A
C1747      C1748   1.401       .  A
C1747      H1752   1.080       .  S
C1748      C1755   1.444       .  S
C1749      C1750   1.402       .  A
C1750      C1751   1.395       .  A
C1750      H1753   1.086       .  S
C1751      C1754   1.446       .  S
C1754      N1756   1.157       .  T
C1755      N1757   1.157       .  T
C1758      C1759   1.405       .  A
C1758      C1763   1.420       .  A
C1759      C1760   1.392       .  A
C1759      H1764   1.083       .  S
C1760      C1761   1.419       .  A
C1760      C1767   1.447       .  S
C1761      C1762   1.407       .  A
C1762      C1763   1.410       .  A
C1762      H1765   1.083       .  S
C1763      C1766   1.443       .  S
C1766      N1768   1.157       .  T
C1770      C1771   1.401       .  A
C1770      C1775   1.414       .  A
C1772      C1779   1.443       .  S
C1773      C2037   1.406       .  A
C1774      C2036   1.405   1_554  A
C1774      C1775   1.403       .  A
C1774      H2040   1.083   1_554  S
C1775      C1778   1.444       .  S
H1777      C2037   1.085       .  S
C1778      N1780   1.157       .  T
C1779      N2044   1.157   1_554  T
N1781      C2042   1.158       .  T
C1782      C1783   1.401       .  A
C1782      C1787   1.418       .  A
C1783      C1784   1.394       .  A
C1783      H1788   1.084       .  S
C1784      C1785   1.421       .  A
C1784      C1791   1.446       .  S
C1785      C1786   1.407       .  A
C1786      C1787   1.411       .  A
C1786      H1789   1.083       .  S
C1787      C1790   1.443       .  S
C1790      N1792   1.157       .  T
C1791      N1793   1.157       .  T
C1794      C1795   1.409       .  A
C1794      C1799   1.421       .  A
C1795      C1796   1.401       .  A
C1795      H1800   1.085       .  S
C1796      C1797   1.408       .  A
C1796      C1803   1.444       .  S
C1797      C1798   1.400       .  A
C1798      C1799   1.402       .  A
C1798      H1801   1.086       .  S
C1799      C1802   1.445       .  S
C1802      N1804   1.158       .  T
C1803      N1805   1.157       .  T
C1806      C1807   1.409       .  A
C1806      C1811   1.413       .  A
C1807      C1808   1.407       .  A
C1807      H1812   1.085       .  S
C1808      C1809   1.411       .  A
C1808      C1815   1.444       .  S
C1809      C1810   1.403       .  A
C1810      C1811   1.391       .  A
C1810      H1813   1.084       .  S
C1811      C1814   1.446       .  S
C1814      N1816   1.157       .  T
C1815      N1817   1.157       .  T
C1818      C1819   1.411       .  A
C1818      C1823   1.424       .  A
C1819      C1820   1.400       .  A
C1819      H1824   1.083       .  S
C1820      C1821   1.405       .  A
C1820      C1827   1.444       .  S
C1821      C1822   1.395       .  A
C1822      C1823   1.396       .  A
C1822      H1825   1.084       .  S
C1823      C1826   1.445       .  S
C1826      N1828   1.157       .  T
C1827      N1829   1.157       .  T
C1830      C1831   1.403       .  A
C1830      C1835   1.414       .  A
C1831      C1832   1.398       .  A
C1831      H1836   1.084       .  S
C1832      C2096   1.416   1_554  A
C1832      C1839   1.446       .  S
C1833      C2095   1.413       .  A
C1833      C2097   1.405       .  A
C1834      C2096   1.401   1_554  A
C1834      C1835   1.395       .  A
C1834      H2100   1.084   1_554  S
C1835      C1838   1.444       .  S
H1837      C2097   1.084       .  S
C1838      N1840   1.157       .  T
C1839      N1841   1.158   1_554  T
C1842      N1843   1.357       .  A
C1842      N1847   1.357       .  A
C1842      C2084   1.471       .  S
N1843      C1844   1.360       .  A
C1844      N1845   1.360       .  A
C1844      C2093   1.482       .  S
N1845      C1846   1.356       .  A
C1846      N1847   1.358       .  A
C1846      C2069   1.483       .  S
C1848      N1849   1.356       .  A
C1848      N1853   1.358       .  A
C1848      C2060   1.481       .  S
N1849      C1850   1.360       .  A
C1850      N1851   1.350       .  A
C1850      C2045   1.481       .  S
N1851      C1852   1.354       .  A
C1852      N1853   1.363       .  A
C1852      C2096   1.474       .  S
C1854      N1855   1.353       .  A
C1854      N1859   1.355       .  A
C1854      C2012   1.470       .  S
N1855      C1856   1.358       .  A
C1856      N1857   1.358       .  A
C1856      C2021   1.499       .  S
N1857      C1858   1.365       .  A
C1858      N1859   1.361       .  A
C1858      C2033   1.489       .  S
C1860      N1861   1.363       .  A
C1860      N1865   1.358       .  A
C1860      C1985   1.495       .  S
N1861      C1862   1.367       .  A
C1862      N1863   1.360       .  A
C1862      C2036   1.486       .  S
N1863      C1864   1.352       .  A
C1864      N1865   1.355       .  A
C1864      C2000   1.480       .  S
C1866      N1867   1.359   1_455  A
C1866      N1871   1.360       .  A
C1866      C1964   1.486       .  S
N1867      C1868   1.358       .  A
C1868      N1869   1.357   1_655  A
C1868      C1952   1.488       .  S
N1869      C1870   1.362       .  A
C1870      N1871   1.365       .  A
C1870      C1973   1.496       .  S
C1872      N1873   1.354       .  A
C1872      N1877   1.356       .  A
C1872      C1937   1.478       .  S
N1873      C1874   1.359       .  A
C1874      N1875   1.362       .  A
C1874      C1928   1.498   1_455  S
N1875      C1876   1.368       .  A
C1876      N1877   1.362       .  A
C1876      C1976   1.498       .  S
O1878     Mn1904   2.097       .  S
C1879      C2057   1.487       .  S
C1879      O1912   1.272       .  A
C1879      O1909   1.271       .  A
O1880     Mn1887   2.178       .  S
O1880     Mn1898   2.116       .  S
O1880     Mn1902   2.177       .  S
O1881     Mn1915   2.101       .  S
O1881      C1891   1.274       .  A
O1882     Mn1898   2.078       .  S
O1882      C1905   1.268       .  A
O1883     Mn1902   2.108       .  S
O1883      C1910   1.252       .  A
O1884     Mn1904   1.953       .  S
O1884      C1900   1.215       .  S
C1885      C2024   1.494       .  S
C1885      O1888   1.255       .  A
C1885      O1911   1.215       .  S
O1886     Mn1887   2.184       .  S
O1886     Mn1920   2.108       .  S
O1886     Mn1902   2.180       .  S
Mn1887     O1892   2.137       .  S
O1889     Mn1896   2.077       .  S
O1889      C1891   1.268       .  A
C1890      C1997   1.480       .  S
C1890      O1916   1.253       .  A
C1890      O1903   1.217       .  S
C1891      C2081   1.493       .  S
O1892      C1917   1.255       .  A
O1893     Mn1896   2.109       .  S
O1893     Mn1915   2.119       .  S
O1894     Mn1898   2.006       .  S
O1894     Mn1920   2.008       .  S
O1894      C1917   1.231       .  A
C1895      C1961   1.490       .  S
C1895      O1897   1.267       .  A
Mn1896     O1909   2.095       .  S
O1897     Mn1920   2.074       .  S
Mn1898     O1914   2.108       .  S
Mn1898     O1908   1.978       .  S
O1899     Mn1904   2.095       .  S
C1900      C1949   1.481       .  S
C1900      O1918   1.254       .  A
C1901      C1988   1.481       .  S
C1901      O1914   1.272       .  A
O1903     Mn1906   1.964       .  S
Mn1904     O1922   1.959       .  S
C1905      C2009   1.496       .  S
Mn1906     O1913   2.095       .  S
Mn1906     O1921   2.115       .  S
Mn1906     O1911   1.948       .  S
C1907      C1940   1.497       .  S
C1907      O1923   1.272       .  A
O1908     Mn1920   1.971       .  S
O1908      C1910   1.217       .  S
C1910      C2072   1.479       .  S
O1912     Mn1915   2.097       .  S
C1917      C2048   1.482       .  S
O1919      C1924   1.258       .  A
Mn1920     O1923   2.101       .  S
O1922      C1924   1.217       .  S
C1924      C1925   1.494       .  S
C1925      C1926   1.408   1_655  A
C1925      C1930   1.417       .  A
C1926      C1927   1.412       .  A
C1926      H1931   1.084       .  S
C1927      C1928   1.419   1_455  A
C1927      C1934   1.443       .  S
C1928      C1929   1.404       .  A
C1929      C1930   1.395       .  A
C1929      H1932   1.085       .  S
C1930      C1933   1.445       .  S
C1933      N1935   1.157       .  T
C1934      N1936   1.157       .  T
C1937      C1938   1.399   1_455  A
C1938      C1939   1.400       .  A
C1938      H1943   1.086       .  S
C1939      C1940   1.420       .  A
C1939      C1946   1.442       .  S
C1941      C1942   1.406       .  A
C1941      H1944   1.084       .  S
C1942      C1945   1.444       .  S
C1945      N1947   1.157       .  T
C1946      N1948   1.157       .  T
C1949      C1950   1.402       .  A
C1950      C1951   1.394       .  A
C1950      H1955   1.085       .  S
C1951      C1952   1.413       .  A
C1951      C1958   1.444       .  S
C1953      C1954   1.407       .  A
C1953      H1956   1.083       .  S
C1954      C1957   1.443       .  S
C1957      N1959   1.157       .  T
C1958      N1960   1.157       .  T
C1961      C1966   1.419       .  A
C1962      C1963   1.406       .  A
C1962      H1967   1.084       .  S
C1963      C1970   1.443       .  S
C1964      C1965   1.400   1_455  A
C1965      C1966   1.397       .  A
C1965      H1968   1.083       .  S
C1966      C1969   1.445       .  S
C1969      N1971   1.157       .  T
C1970      N1972   1.157       .  T
C1973      C1974   1.407       .  A
C1974      C1975   1.403       .  A
C1974      H1979   1.086       .  S
C1975      C1982   1.444   1_455  S
C1977      C1978   1.400       .  A
C1978      C1981   1.444       .  S
C1981      N1983   1.157       .  T
C1985      C1990   1.418       .  A
C1986      C1987   1.397       .  A
C1986      H1991   1.083       .  S
C1987      C1994   1.444       .  S
C1988      C1989   1.405       .  A
C1989      C1990   1.411       .  A
C1989      H1992   1.085       .  S
C1990      C1993   1.443       .  S
C1993      N1995   1.157       .  T
C1994      N1996   1.157       .  T
C1997      C2002   1.411       .  A
C1998      C1999   1.392       .  A
C1998      H2003   1.085       .  S
C1999      C2006   1.445       .  S
C2000      C2001   1.408       .  A
C2001      C2002   1.407       .  A
C2001      H2004   1.085       .  S
C2002      C2005   1.443       .  S
C2005      N2007   1.157       .  T
C2006      N2008   1.157       .  T
C2009      C2014   1.424       .  A
C2010      C2011   1.403       .  A
C2010      H2015   1.085       .  S
C2011      C2018   1.443       .  S
C2012      C2013   1.397       .  A
C2013      C2014   1.401       .  A
C2013      H2016   1.085       .  S
C2014      C2017   1.445       .  S
C2017      N2019   1.158       .  T
C2018      N2020   1.157       .  T
C2021      C2022   1.404       .  A
C2021      C2026   1.421       .  A
C2022      C2023   1.393       .  A
C2022      H2027   1.083       .  S
C2023      C2024   1.418       .  A
C2023      C2030   1.445       .  S
C2024      C2025   1.407       .  A
C2025      C2026   1.410       .  A
C2025      H2028   1.083       .  S
C2026      C2029   1.443       .  S
C2029      N2031   1.157       .  T
C2033      C2034   1.403       .  A
C2033      C2038   1.417       .  A
C2035      C2042   1.445       .  S
C2037      C2038   1.403       .  A
C2038      C2041   1.444       .  S
C2041      N2043   1.158       .  T
C2045      C2046   1.394       .  A
C2045      C2050   1.420       .  A
C2046      C2047   1.384       .  A
C2046      H2051   1.085       .  S
C2047      C2048   1.424       .  A
C2047      C2054   1.446       .  S
C2048      C2049   1.402       .  A
C2049      C2050   1.406       .  A
C2049      H2052   1.084       .  S
C2050      C2053   1.443       .  S
C2053      N2055   1.157       .  T
C2054      N2056   1.156       .  T
C2057      C2058   1.408       .  A
C2057      C2062   1.415       .  A
C2058      C2059   1.405       .  A
C2058      H2063   1.083       .  S
C2059      C2060   1.412       .  A
C2059      C2066   1.444       .  S
C2060      C2061   1.403       .  A
C2061      C2062   1.401       .  A
C2061      H2064   1.084       .  S
C2062      C2065   1.445       .  S
C2065      N2067   1.157       .  T
C2066      N2068   1.157       .  T
C2069      C2070   1.408       .  A
C2069      C2074   1.412       .  A
C2070      C2071   1.405       .  A
C2070      H2075   1.084       .  S
C2071      C2072   1.410       .  A
C2071      C2078   1.444       .  S
C2072      C2073   1.403       .  A
C2073      C2074   1.396       .  A
C2073      H2076   1.081       .  S
C2074      C2077   1.445       .  S
C2077      N2079   1.157       .  T
C2078      N2080   1.157       .  T
C2081      C2082   1.410       .  A
C2081      C2086   1.423       .  A
C2082      C2083   1.401       .  A
C2082      H2087   1.085       .  S
C2083      C2084   1.407       .  A
C2083      C2090   1.443       .  S
C2084      C2085   1.398       .  A
C2085      C2086   1.399       .  A
C2085      H2088   1.086       .  S
C2086      C2089   1.446       .  S
C2089      N2091   1.158       .  T
C2090      N2092   1.157       .  T
C2093      C2094   1.404       .  A
C2093      C2098   1.414       .  A
C2094      C2095   1.397       .  A
C2094      H2099   1.084       .  S
C2095      C2102   1.445       .  S
C2097      C2098   1.403       .  A
C2098      C2101   1.444       .  S
C2101      N2103   1.157       .  T
C2102      N2104   1.157       .  T
