geometry optimzed in LAMMPS
_audit_creation_date              2020-11-30 
_audit_creation_method            'lammps2cif' 
_symmetry_space_group_name_H-M    'P1' 
_symmetry_Int_Tables_number       1 
_symmetry_cell_setting            triclinic 
loop_ 
_symmetry_equiv_pos_as_xyz 
  x,y,z 
_cell_length_a                    40.67537125 
_cell_length_b                    40.67904799593424 
_cell_length_c                    23.285238961562165 
_cell_angle_alpha                 89.97751289852529 
_cell_angle_beta                  90.02201577323294 
_cell_angle_gamma                 120.02305629955465 
loop_ 
_atom_site_label 
_atom_site_type_symbol 
_atom_site_fract_x 
_atom_site_fract_y 
_atom_site_fract_z 
_atom_site_charge 
C1          C  0.22138793  0.21357817  0.29575494     0.05400
C2          C  0.22010122  0.21198590  0.23564310    -0.10800
C3          C  0.24922097  0.24108553  0.20339877     0.02900
C4          C  0.27961145  0.27177632  0.23130467    -0.09300
C5          C  0.28090843  0.27337900  0.29139234     0.05400
C6          C  0.25178544  0.24428249  0.32356098    -0.08700
H7          H  0.19661106  0.18820044  0.21407321     0.11000
H8          H  0.30218482  0.29426338  0.20637002     0.08500
H9          H  0.25281961  0.24548504  0.37010000     0.08400
C10         C  0.22308988  0.21187913  0.82348271     0.05400
C11         C  0.22150835  0.21057417  0.88359500    -0.10800
C12         C  0.25061252  0.23968585  0.91584389     0.02900
C13         C  0.28129698  0.27008577  0.88794232    -0.09300
C14         C  0.28288886  0.27140093  0.82785475     0.05400
C15         C  0.25378843  0.24228598  0.79568127    -0.08700
H16         H  0.19772601  0.18707816  0.90516161     0.11000
H17         H  0.30378578  0.29265478  0.91288079     0.08500
H18         H  0.25498138  0.24333587  0.74914221     0.08400
C19         C  0.24711264  0.47388710  0.29588513     0.05400
C20         C  0.21643760  0.47361765  0.32368774    -0.10800
C21         C  0.18733609  0.47363479  0.29151725     0.02900
C22         C  0.18890230  0.47388046  0.23142275    -0.09300
C23         C  0.21956086  0.47414171  0.20351172     0.05400
C24         C  0.24866376  0.47413460  0.23576779    -0.08700
H25         H  0.21527273  0.47350753  0.37022758     0.11000
H26         H  0.16642039  0.47397051  0.20648503     0.08500
H27         H  0.27243077  0.47441383  0.21420157     0.08400
C28         C  0.24885894  0.47702177  0.82361975     0.05400
C29         C  0.25011555  0.47678801  0.88374238    -0.10800
C30         C  0.22100651  0.47683956  0.91588072     0.02900
C31         C  0.19065502  0.47714241  0.88784628    -0.09300
C32         C  0.18938420  0.47738073  0.82774520     0.05400
C33         C  0.21849630  0.47732721  0.79569308    -0.08700
H34         H  0.27357878  0.47649964  0.90540411     0.11000
H35         H  0.16809393  0.47711819  0.91269367     0.08500
H36         H  0.21748942  0.47744977  0.74914869     0.08400
C37         C  0.48652585  0.23946353  0.29564242     0.05400
C38         C  0.48631790  0.24072719  0.23551766    -0.10800
C39         C  0.48638118  0.21162330  0.20338592     0.02900
C40         C  0.48666990  0.18127009  0.23143117    -0.09300
C41         C  0.48688275  0.17999125  0.29153347     0.05400
C42         C  0.48681791  0.20909854  0.32357727    -0.08700
H43         H  0.48603897  0.26419099  0.21384908     0.11000
H44         H  0.48665371  0.15871201  0.20658956     0.08500
H45         H  0.48691942  0.20808507  0.37012175     0.08400
C46         C  0.48341258  0.23772975  0.82337537     0.05400
C47         C  0.48368262  0.23928227  0.88349454    -0.10800
C48         C  0.48370018  0.21018198  0.91573919     0.02900
C49         C  0.48342764  0.17952471  0.88781297    -0.09300
C50         C  0.48315960  0.17795603  0.82771691     0.05400
C51         C  0.48313183  0.20705526  0.79555979    -0.08700
H52         H  0.48396839  0.26304652  0.90507078     0.11000
H53         H  0.48352373  0.15704401  0.91274035     0.08500
H54         H  0.48300296  0.20588808  0.74902001     0.08400
O55         O  0.40115121  0.00749379  0.49515704    -0.85900
C56         C  0.09500431  0.08538747  0.64286212     1.14100
O57         O  0.44548886  0.47568260  0.55969059    -1.33700
O58         O  0.06933468  0.09180706  0.49595439    -0.87400
O59         O  0.36901423  0.44382335  0.49604011    -0.88100
O60         O  0.44600365  0.43683595  0.43962825    -0.76900
O61         O  0.48525855  0.05109568  0.50540292    -0.99000
C62         C  0.05346543  0.47546259  0.45418322     1.24200
O63         O  0.48511752  0.43605898  0.55956545    -1.33900
Mn64       Mn  0.48516528  0.47567261  0.62124108     1.82100
O65         O  0.02399807  0.47562511  0.43954102    -0.76000
O66         O  0.10085049  0.05967213  0.49491609    -0.85400
C67         C  0.05387763  0.47596540  0.66485064     1.15300
C68         C  0.09482689  0.08555358  0.47636778     1.10000
O69         O  0.44627163  0.43658001  0.67963144    -0.76900
O70         O  0.02477733  0.01534209  0.55962276    -1.30600
O71         O  0.40990983  0.40027862  0.61397733    -0.96100
C72         C  0.48512951  0.36601867  0.47616975     1.08700
Mn73       Mn  0.07867754  0.01826964  0.55930087     1.48600
O74         O  0.45324228  0.35996877  0.49483942    -0.85300
Mn75       Mn  0.39157348  0.42468574  0.55993638     1.49600
O76         O  0.40095133  0.00747633  0.62356033    -0.89200
C77         C  0.48539493  0.04443962  0.45439684     1.21900
C78         C  0.37544948  0.47569028  0.64309037     1.13900
Mn79       Mn  0.48510092  0.47573049  0.49801141     1.81000
O80         O  0.06053552  0.47582732  0.61384477    -0.94300
Mn81       Mn  0.44256845  0.02665090  0.55954036     1.49300
C82         C  0.37527073  0.47559870  0.47653570     1.10500
Mn83       Mn  0.03609073  0.43313936  0.55971200     1.49900
C84         C  0.48504709  0.36584973  0.64273097     1.13400
O85         O  0.40970834  0.40047238  0.50528729    -1.00100
O86         O  0.10125297  0.05989422  0.62327609    -0.89800
C87         C  0.41639122  0.40735229  0.45429765     1.24600
O88         O  0.06032218  0.47558732  0.50516876    -1.00500
O89         O  0.06912117  0.09141322  0.62431779    -0.87900
O90         O  0.01694207  0.39172973  0.62410280    -0.87500
O91         O  0.36940148  0.44380648  0.62442382    -0.87600
Mn92       Mn  0.02770910  0.06923936  0.55993852     1.47900
O93         O  0.02426718  0.47580174  0.67957640    -0.76000
C94         C  0.41679273  0.40696196  0.66496577     1.17700
O95         O  0.48522541  0.01482854  0.43967077    -0.74800
O96         O  0.48506163  0.01457227  0.67970935    -0.74400
Mn97       Mn  0.43412205  0.38214288  0.55932876     1.51100
O98         O  0.01691712  0.39152269  0.49569645    -0.86700
O99         O  0.48502498  0.05088970  0.61407578    -0.94300
O100        O  0.45326665  0.35958990  0.62322942    -0.89300
C101        C  0.48490401  0.04403939  0.66506283     1.15500
C102        C  0.48321713  0.14671073  0.79878895    -0.16200
C103        C  0.48349606  0.12132300  0.77251379     0.07800
C104        C  0.48400298  0.09274666  0.73882208     0.09700
C105        C  0.48446667  0.06961868  0.70701347    -0.17100
C106        C  0.48367696  0.26764032  0.78994591    -0.16200
C107        C  0.48404058  0.29197877  0.75994938     0.06300
C108        C  0.48452952  0.31936157  0.72218014     0.09700
C109        C  0.48487469  0.34146376  0.68736803    -0.17100
C110        C  0.48587666  0.07052835  0.41250378    -0.16200
C111        C  0.48633359  0.09412823  0.38068746     0.07800
C112        C  0.48675914  0.12316506  0.34693652     0.09700
C113        C  0.48693328  0.14876537  0.32058158    -0.17100
C114        C  0.48626812  0.26914029  0.32895719    -0.16200
C115        C  0.48596000  0.29315587  0.35888988     0.07800
C116        C  0.48555971  0.32009000  0.39663315     0.09700
C117        C  0.48527644  0.34185217  0.43146605    -0.17100
C118        C  0.48595181  0.21272974  0.14161363    -0.16200
C119        C  0.48545293  0.21304326  0.08985957     0.07800
C120        C  0.48477784  0.21268802  0.02925556     0.09700
C121        C  0.48422579  0.21181550  0.97750467    -0.17100
C122        C  0.35128179  0.47583326  0.68779528    -0.16200
C123        C  0.32951269  0.47610489  0.72262771     0.07800
C124        C  0.30256732  0.47648673  0.76036819     0.09700
C125        C  0.27854258  0.47677961  0.79030006    -0.17100
C126        C  0.07995987  0.47643714  0.70674739    -0.16200
C127        C  0.10354777  0.47688047  0.73857788     0.07800
C128        C  0.13257022  0.47728803  0.77234548     0.09700
C129        C  0.15816262  0.47744730  0.79870563    -0.17100
C130        C  0.35087948  0.47541856  0.43190184    -0.16200
C131        C  0.32876877  0.47505927  0.39709187     0.07800
C132        C  0.30137494  0.47454942  0.35932403     0.09700
C133        C  0.27702827  0.47416842  0.32932482    -0.17100
C134        C  0.07903509  0.47501192  0.41222720    -0.16200
C135        C  0.10215068  0.47453238  0.38040722     0.07800
C136        C  0.13071345  0.47400516  0.34670561     0.09700
C137        C  0.15609398  0.47370951  0.32043079    -0.17100
C138        C  0.22119620  0.47465287  0.14174990    -0.16200
C139        C  0.22206919  0.47520017  0.09000104     0.07800
C140        C  0.22242301  0.47587889  0.02940054     0.09700
C141        C  0.22210880  0.47638868  0.97764899    -0.17100
C142        C  0.31417398  0.30268852  0.79894337    -0.16200
C143        C  0.33958004  0.32832101  0.77261751     0.07800
C144        C  0.36814072  0.35734920  0.73881438     0.09700
C145        C  0.39123631  0.38091418  0.70691988    -0.17100
C146        C  0.11941116  0.10956691  0.68749308    -0.16200
C147        C  0.14151707  0.13132562  0.72229126     0.07800
C148        C  0.16888326  0.15823569  0.76004807     0.09700
C149        C  0.19320123  0.18222584  0.79004558    -0.17100
C150        C  0.39035422  0.38178256  0.41234519    -0.16200
C151        C  0.36680492  0.35867275  0.38044823     0.07800
C152        C  0.33779731  0.33009478  0.34663974     0.09700
C153        C  0.31218098  0.30467572  0.32030902    -0.17100
C154        C  0.19171966  0.18369984  0.32918661    -0.16200
C155        C  0.16771288  0.15939412  0.35917977     0.07800
C156        C  0.14078227  0.13204502  0.39693394     0.09700
C157        C  0.11901046  0.10995217  0.43173292    -0.17100
C158        C  0.24809347  0.23943557  0.14165295    -0.16200
C159        C  0.24776653  0.23856428  0.08991367     0.07800
C160        C  0.24810584  0.23821866  0.02932950     0.09700
C161        C  0.24896996  0.23854632  0.97758992    -0.17100
C162        C  0.22138789  0.71357806  0.29575491     0.05400
C163        C  0.22010122  0.71198586  0.23564321    -0.10800
C164        C  0.24922085  0.74108542  0.20339873     0.02900
C165        C  0.27961143  0.77177629  0.23130461    -0.09300
C166        C  0.28090851  0.77337890  0.29139225     0.05400
C167        C  0.25178553  0.74428241  0.32356090    -0.08700
H168        H  0.19661041  0.68819974  0.21407289     0.11000
H169        H  0.30218479  0.79426340  0.20636993     0.08500
H170        H  0.25282003  0.74548480  0.37009994     0.08400
C171        C  0.22308986  0.71187912  0.82348271     0.05400
C172        C  0.22150833  0.71057416  0.88359501    -0.10800
C173        C  0.25061250  0.73968584  0.91584390     0.02900
C174        C  0.28129696  0.77008576  0.88794232    -0.09300
C175        C  0.28288885  0.77140092  0.82785476     0.05400
C176        C  0.25378842  0.74228598  0.79568128    -0.08700
H177        H  0.19772599  0.68707814  0.90516161     0.11000
H178        H  0.30378576  0.79265477  0.91288080     0.08500
H179        H  0.25498137  0.74333585  0.74914223     0.08400
C180        C  0.24711262  0.97388708  0.29588513     0.05400
C181        C  0.21643757  0.97361763  0.32368774    -0.10800
C182        C  0.18733607  0.97363477  0.29151725     0.02900
C183        C  0.18890228  0.97388044  0.23142276    -0.09300
C184        C  0.21956083  0.97414169  0.20351172     0.05400
C185        C  0.24866374  0.97413458  0.23576779    -0.08700
H186        H  0.21527271  0.97350751  0.37022758     0.11000
H187        H  0.16642037  0.97397049  0.20648503     0.08500
H188        H  0.27243075  0.97441381  0.21420157     0.08400
C189        C  0.24885893  0.97702185  0.82361979     0.05400
C190        C  0.25011552  0.97678808  0.88374239    -0.10800
C191        C  0.22100640  0.97683963  0.91588079     0.02900
C192        C  0.19065495  0.97714237  0.88784625    -0.09300
C193        C  0.18938409  0.97738071  0.82774532     0.05400
C194        C  0.21849625  0.97732718  0.79569316    -0.08700
H195        H  0.27357907  0.97650033  0.90540409     0.11000
H196        H  0.16809315  0.97711805  0.91269417     0.08500
H197        H  0.21748933  0.97744964  0.74914876     0.08400
C198        C  0.48652592  0.73946371  0.29564227     0.05400
C199        C  0.48631791  0.74072721  0.23551769    -0.10800
C200        C  0.48638121  0.71162355  0.20338591     0.02900
C201        C  0.48666988  0.68127022  0.23143120    -0.09300
C202        C  0.48688277  0.67999140  0.29153358     0.05400
C203        C  0.48681792  0.70909865  0.32357727    -0.08700
H204        H  0.48603923  0.76419187  0.21384844     0.11000
H205        H  0.48665331  0.65871235  0.20658991     0.08500
H206        H  0.48691969  0.70808539  0.37012171     0.08400
C207        C  0.48341265  0.73772975  0.82337538     0.05400
C208        C  0.48368267  0.73928226  0.88349453    -0.10800
C209        C  0.48370015  0.71018195  0.91573921     0.02900
C210        C  0.48342768  0.67952471  0.88781300    -0.09300
C211        C  0.48315967  0.67795604  0.82771691     0.05400
C212        C  0.48313189  0.70705527  0.79555981    -0.08700
H213        H  0.48396826  0.76304647  0.90507080     0.11000
H214        H  0.48352360  0.65704396  0.91274033     0.08500
H215        H  0.48300355  0.70588832  0.74902000     0.08400
O216        O  0.40115116  0.50749366  0.49515708    -0.85900
C217        C  0.09500429  0.58538746  0.64286214     1.14100
O218        O  0.44548885  0.97568260  0.55969061    -1.33700
O219        O  0.06933467  0.59180707  0.49595446    -0.87400
O220        O  0.36901425  0.94382338  0.49604017    -0.88100
O221        O  0.44600366  0.93683594  0.43962830    -0.76900
O222        O  0.48525856  0.55109567  0.50540291    -0.99000
C223        C  0.05346547  0.97546268  0.45418323     1.24200
O224        O  0.48511750  0.93605897  0.55956546    -1.33900
Mn225      Mn  0.48516527  0.97567259  0.62124109     1.82100
O226        O  0.02399806  0.97562510  0.43954103    -0.76000
O227        O  0.10085041  0.55967214  0.49491604    -0.85400
C228        C  0.05387761  0.97596539  0.66485065     1.15300
C229        C  0.09482690  0.58555364  0.47636782     1.10000
O230        O  0.44627160  0.93657994  0.67963145    -0.76900
O231        O  0.02477735  0.51534211  0.55962275    -1.30600
O232        O  0.40990981  0.90027856  0.61397735    -0.96100
C233        C  0.48512949  0.86601866  0.47616978     1.08700
Mn234      Mn  0.07867754  0.51826965  0.55930084     1.48600
O235        O  0.45324226  0.85996876  0.49483944    -0.85300
Mn236      Mn  0.39157348  0.92468574  0.55993640     1.49600
O237        O  0.40095137  0.50747635  0.62356032    -0.89200
C238        C  0.48539494  0.54443961  0.45439682     1.21900
C239        C  0.37544951  0.97569027  0.64309046     1.13900
Mn240      Mn  0.48510091  0.97573049  0.49801143     1.81000
O241        O  0.06053550  0.97582731  0.61384478    -0.94300
Mn242      Mn  0.44256846  0.52665088  0.55954035     1.49300
C243        C  0.37527078  0.97559878  0.47653572     1.10500
Mn244      Mn  0.03609071  0.93313936  0.55971197     1.49900
C245        C  0.48504712  0.86584971  0.64273095     1.13400
O246        O  0.40970826  0.90047238  0.50528726    -1.00100
O247        O  0.10125295  0.55989422  0.62327609    -0.89800
C248        C  0.41639123  0.90735227  0.45429769     1.24600
O249        O  0.06032219  0.97558737  0.50516876    -1.00500
O250        O  0.06912116  0.59141322  0.62431782    -0.87900
O251        O  0.01694205  0.89172971  0.62410275    -0.87500
O252        O  0.36940152  0.94380648  0.62442381    -0.87600
Mn253      Mn  0.02770912  0.56923938  0.55993853     1.47900
O254        O  0.02426715  0.97580172  0.67957641    -0.76000
C255        C  0.41679265  0.90696195  0.66496578     1.17700
O256        O  0.48522542  0.51482853  0.43967078    -0.74800
O257        O  0.48506164  0.51457228  0.67970936    -0.74400
Mn258      Mn  0.43412204  0.88214286  0.55932876     1.51100
O259        O  0.01691711  0.89152269  0.49569637    -0.86700
O260        O  0.48502498  0.55088969  0.61407577    -0.94300
O261        O  0.45326667  0.85958986  0.62322945    -0.89300
C262        C  0.48490398  0.54403938  0.66506284     1.15500
C263        C  0.48321719  0.64671073  0.79878890    -0.16200
C264        C  0.48349605  0.62132296  0.77251374     0.07800
C265        C  0.48400302  0.59274670  0.73882200     0.09700
C266        C  0.48446664  0.56961867  0.70701345    -0.17100
C267        C  0.48367693  0.76764026  0.78994591    -0.16200
C268        C  0.48404055  0.79197872  0.75994940     0.06300
C269        C  0.48452960  0.81936157  0.72218009     0.09700
C270        C  0.48487464  0.84146373  0.68736802    -0.17100
C271        C  0.48587677  0.57052839  0.41250372    -0.16200
C272        C  0.48633361  0.59412825  0.38068741     0.07800
C273        C  0.48675922  0.62316511  0.34693646     0.09700
C274        C  0.48693326  0.64876543  0.32058164    -0.17100
C275        C  0.48626819  0.76914041  0.32895706    -0.16200
C276        C  0.48596000  0.79315590  0.35888988     0.07800
C277        C  0.48555975  0.82009008  0.39663311     0.09700
C278        C  0.48527642  0.84185218  0.43146607    -0.17100
C279        C  0.48595179  0.71272978  0.14161363    -0.16200
C280        C  0.48545289  0.71304323  0.08985958     0.07800
C281        C  0.48477782  0.71268799  0.02925557     0.09700
C282        C  0.48422585  0.71181550  0.97750468    -0.17100
C283        C  0.35128180  0.97583331  0.68779534    -0.16200
C284        C  0.32951265  0.97610490  0.72262774     0.07800
C285        C  0.30256727  0.97648670  0.76036821     0.09700
C286        C  0.27854255  0.97677961  0.79030007    -0.17100
C287        C  0.07995985  0.97643712  0.70674740    -0.16200
C288        C  0.10354775  0.97688045  0.73857788     0.07800
C289        C  0.13257020  0.97728801  0.77234547     0.09700
C290        C  0.15816259  0.97744727  0.79870562    -0.17100
C291        C  0.35087951  0.97541864  0.43190185    -0.16200
C292        C  0.32876876  0.97505926  0.39709188     0.07800
C293        C  0.30137492  0.97454939  0.35932403     0.09700
C294        C  0.27702824  0.97416840  0.32932482    -0.17100
C295        C  0.07903509  0.97501195  0.41222721    -0.16200
C296        C  0.10215073  0.97453251  0.38040722     0.07800
C297        C  0.13071342  0.97400514  0.34670561     0.09700
C298        C  0.15609394  0.97370947  0.32043079    -0.17100
C299        C  0.22119618  0.97465286  0.14174989    -0.16200
C300        C  0.22206916  0.97520015  0.09000104     0.07800
C301        C  0.22242299  0.97587887  0.02940055     0.09700
C302        C  0.22210879  0.97638868  0.97764901    -0.17100
C303        C  0.31417397  0.80268851  0.79894336    -0.16200
C304        C  0.33958002  0.82832101  0.77261750     0.07800
C305        C  0.36814071  0.85734918  0.73881438     0.09700
C306        C  0.39123633  0.88091413  0.70691990    -0.17100
C307        C  0.11941115  0.60956689  0.68749309    -0.16200
C308        C  0.14151712  0.63132557  0.72229122     0.07800
C309        C  0.16888326  0.65823565  0.76004805     0.09700
C310        C  0.19320129  0.68222577  0.79004553    -0.17100
C311        C  0.39035420  0.88178253  0.41234539    -0.16200
C312        C  0.36680492  0.85867277  0.38044835     0.07800
C313        C  0.33779740  0.83009476  0.34663972     0.09700
C314        C  0.31218101  0.80467571  0.32030896    -0.17100
C315        C  0.19171973  0.68369982  0.32918670    -0.16200
C316        C  0.16771289  0.65939414  0.35917976     0.07800
C317        C  0.14078228  0.63204503  0.39693387     0.09700
C318        C  0.11901048  0.60995220  0.43173288    -0.17100
C319        C  0.24809343  0.73943555  0.14165294    -0.16200
C320        C  0.24776651  0.73856427  0.08991366     0.07800
C321        C  0.24810582  0.73821864  0.02932950     0.09700
C322        C  0.24896994  0.73854630  0.97758992    -0.17100
C323        C  0.72138791  0.21357821  0.29575499     0.05400
C324        C  0.72010120  0.21198598  0.23564317    -0.10800
C325        C  0.74922099  0.24108560  0.20339875     0.02900
C326        C  0.77961140  0.27177632  0.23130468    -0.09300
C327        C  0.78090853  0.27337897  0.29139224     0.05400
C328        C  0.75178548  0.24428251  0.32356094    -0.08700
H329        H  0.69661090  0.18820062  0.21407326     0.11000
H330        H  0.80218539  0.29426351  0.20636959     0.08500
H331        H  0.75281993  0.24548492  0.37009998     0.08400
C332        C  0.72308979  0.21187912  0.82348276     0.05400
C333        C  0.72150825  0.21057418  0.88359497    -0.10800
C334        C  0.75061234  0.23968582  0.91584392     0.02900
C335        C  0.78129686  0.27008578  0.88794234    -0.09300
C336        C  0.78288880  0.27140094  0.82785480     0.05400
C337        C  0.75378838  0.24228605  0.79568132    -0.08700
H338        H  0.69772544  0.18707792  0.90516178     0.11000
H339        H  0.80378569  0.29265477  0.91288083     0.08500
H340        H  0.75498142  0.24333592  0.74914226     0.08400
C341        C  0.74711261  0.47388710  0.29588510     0.05400
C342        C  0.71643758  0.47361765  0.32368772    -0.10800
C343        C  0.68733612  0.47363479  0.29151724     0.02900
C344        C  0.68890239  0.47388046  0.23142282    -0.09300
C345        C  0.71956083  0.47414171  0.20351170     0.05400
C346        C  0.74866371  0.47413460  0.23576773    -0.08700
H347        H  0.71527262  0.47350752  0.37022759     0.11000
H348        H  0.66642031  0.47397051  0.20648488     0.08500
H349        H  0.77243059  0.47441383  0.21420147     0.08400
C350        C  0.74885900  0.47702177  0.82361979     0.05400
C351        C  0.75011553  0.47678800  0.88374240    -0.10800
C352        C  0.72100651  0.47683956  0.91588070     0.02900
C353        C  0.69065496  0.47714241  0.88784620    -0.09300
C354        C  0.68938420  0.47738073  0.82774512     0.05400
C355        C  0.71849633  0.47732721  0.79569307    -0.08700
H356        H  0.77357895  0.47649964  0.90540447     0.11000
H357        H  0.66809397  0.47711819  0.91269337     0.08500
H358        H  0.71748949  0.47744977  0.74914873     0.08400
C359        C  0.98652598  0.23946364  0.29564245     0.05400
C360        C  0.98631787  0.24072721  0.23551776    -0.10800
C361        C  0.98638114  0.21162344  0.20338595     0.02900
C362        C  0.98666976  0.18127011  0.23143110    -0.09300
C363        C  0.98688277  0.17999134  0.29153346     0.05400
C364        C  0.98681785  0.20909852  0.32357729    -0.08700
H365        H  0.98603976  0.26419169  0.21384900     0.11000
H366        H  0.98665313  0.15871213  0.20658969     0.08500
H367        H  0.98691987  0.20808523  0.37012181     0.08400
C368        C  0.98341271  0.23772974  0.82337530     0.05400
C369        C  0.98368270  0.23928225  0.88349454    -0.10800
C370        C  0.98370020  0.21018184  0.91573919     0.02900
C371        C  0.98342769  0.17952468  0.88781296    -0.09300
C372        C  0.98315962  0.17795596  0.82771697     0.05400
C373        C  0.98313194  0.20705527  0.79555978    -0.08700
H374        H  0.98396870  0.26304630  0.90507051     0.11000
H375        H  0.98352399  0.15704379  0.91274063     0.08500
H376        H  0.98300304  0.20588808  0.74901999     0.08400
O377        O  0.90115114  0.00749379  0.49515709    -0.85900
C378        C  0.59500426  0.08538748  0.64286210     1.14100
O379        O  0.94548877  0.47568263  0.55969064    -1.33700
O380        O  0.56933459  0.09180709  0.49595439    -0.87400
O381        O  0.86901427  0.44382335  0.49604013    -0.88100
O382        O  0.94600364  0.43683595  0.43962820    -0.76900
O383        O  0.98525857  0.05109567  0.50540295    -0.99000
C384        C  0.55346547  0.47546259  0.45418322     1.24200
O385        O  0.98511742  0.43605898  0.55956545    -1.33900
Mn386      Mn  0.98516524  0.47567262  0.62124109     1.82100
O387        O  0.52399809  0.47562510  0.43954098    -0.76000
O388        O  0.60085036  0.05967213  0.49491609    -0.85400
C389        C  0.55387762  0.47596540  0.66485068     1.15300
C390        C  0.59482677  0.08555358  0.47636776     1.10000
O391        O  0.94627167  0.43658001  0.67963145    -0.76900
O392        O  0.52477735  0.01534210  0.55962275    -1.30600
O393        O  0.90990977  0.40027864  0.61397732    -0.96100
C394        C  0.98512951  0.36601867  0.47616981     1.08700
Mn395      Mn  0.57867751  0.01826964  0.55930088     1.48600
O396        O  0.95324224  0.35996874  0.49483939    -0.85300
Mn397      Mn  0.89157343  0.42468575  0.55993635     1.49600
O398        O  0.90095128  0.00747633  0.62356028    -0.89200
C399        C  0.98539493  0.04443963  0.45439686     1.21900
C400        C  0.87544947  0.47569026  0.64309037     1.13900
Mn401      Mn  0.98510090  0.47573051  0.49801144     1.81000
O402        O  0.56053553  0.47582731  0.61384483    -0.94300
Mn403      Mn  0.94256841  0.02665092  0.55954034     1.49300
C404        C  0.87527070  0.47559869  0.47653574     1.10500
Mn405      Mn  0.53609076  0.43313934  0.55971204     1.49900
C406        C  0.98504716  0.36584972  0.64273092     1.13400
O407        O  0.90970833  0.40047239  0.50528727    -1.00100
O408        O  0.60125292  0.05989420  0.62327610    -0.89800
C409        C  0.91639123  0.40735228  0.45429763     1.24600
O410        O  0.56032228  0.47558731  0.50516876    -1.00500
O411        O  0.56912114  0.09141330  0.62431780    -0.87900
O412        O  0.51694201  0.39172969  0.62410280    -0.87500
O413        O  0.86940152  0.44380647  0.62442377    -0.87600
Mn414      Mn  0.52770911  0.06923939  0.55993854     1.47900
O415        O  0.52426717  0.47580174  0.67957644    -0.76000
C416        C  0.91679269  0.40696202  0.66496577     1.17700
O417        O  0.98522536  0.01482854  0.43967080    -0.74800
O418        O  0.98506163  0.01457224  0.67970932    -0.74400
Mn419      Mn  0.93412203  0.38214287  0.55932875     1.51100
O420        O  0.51691709  0.39152263  0.49569648    -0.86700
O421        O  0.98502489  0.05088966  0.61407573    -0.94300
O422        O  0.95326673  0.35958997  0.62322946    -0.89300
C423        C  0.98490399  0.04403936  0.66506278     1.15500
C424        C  0.98321722  0.14671073  0.79878901    -0.16200
C425        C  0.98349605  0.12132297  0.77251380     0.07800
C426        C  0.98400296  0.09274665  0.73882205     0.09700
C427        C  0.98446668  0.06961868  0.70701342    -0.17100
C428        C  0.98367707  0.26764035  0.78994589    -0.16200
C429        C  0.98404058  0.29197875  0.75994939     0.06300
C430        C  0.98452958  0.31936156  0.72218015     0.09700
C431        C  0.98487465  0.34146374  0.68736810    -0.17100
C432        C  0.98587664  0.07052832  0.41250375    -0.16200
C433        C  0.98633359  0.09412824  0.38068743     0.07800
C434        C  0.98675927  0.12316515  0.34693643     0.09700
C435        C  0.98693332  0.14876543  0.32058148    -0.17100
C436        C  0.98626825  0.26914039  0.32895718    -0.16200
C437        C  0.98596014  0.29315594  0.35888992     0.07800
C438        C  0.98555988  0.32009013  0.39663316     0.09700
C439        C  0.98527646  0.34185220  0.43146609    -0.17100
C440        C  0.98595169  0.21272978  0.14161365    -0.16200
C441        C  0.98545288  0.21304325  0.08985958     0.07800
C442        C  0.98477772  0.21268801  0.02925557     0.09700
C443        C  0.98422588  0.21181547  0.97750467    -0.17100
C444        C  0.85128173  0.47583322  0.68779533    -0.16200
C445        C  0.82951265  0.47610489  0.72262779     0.07800
C446        C  0.80256736  0.47648673  0.76036825     0.09700
C447        C  0.77854260  0.47677961  0.79030004    -0.17100
C448        C  0.57995984  0.47643714  0.70674743    -0.16200
C449        C  0.60354771  0.47688047  0.73857793     0.07800
C450        C  0.63257023  0.47728803  0.77234536     0.09700
C451        C  0.65816260  0.47744730  0.79870556    -0.17100
C452        C  0.85087938  0.47541852  0.43190191    -0.16200
C453        C  0.82876880  0.47505927  0.39709178     0.07800
C454        C  0.80137491  0.47454942  0.35932408     0.09700
C455        C  0.77702832  0.47416842  0.32932470    -0.17100
C456        C  0.57903514  0.47501192  0.41222732    -0.16200
C457        C  0.60215074  0.47453238  0.38040731     0.07800
C458        C  0.63071350  0.47400516  0.34670558     0.09700
C459        C  0.65609407  0.47370951  0.32043084    -0.17100
C460        C  0.72119619  0.47465287  0.14174989    -0.16200
C461        C  0.72206906  0.47520017  0.09000104     0.07800
C462        C  0.72242286  0.47587889  0.02940055     0.09700
C463        C  0.72210878  0.47638868  0.97764898    -0.17100
C464        C  0.81417395  0.30268847  0.79894340    -0.16200
C465        C  0.83958008  0.32832093  0.77261759     0.07800
C466        C  0.86814070  0.35734918  0.73881439     0.09700
C467        C  0.89123635  0.38091416  0.70691989    -0.17100
C468        C  0.61941119  0.10956690  0.68749300    -0.16200
C469        C  0.64151714  0.13132556  0.72229117     0.07800
C470        C  0.66888332  0.15823562  0.76004802     0.09700
C471        C  0.69320121  0.18222581  0.79004557    -0.17100
C472        C  0.89035423  0.38178257  0.41234521    -0.16200
C473        C  0.86680499  0.35867273  0.38044822     0.07800
C474        C  0.83779732  0.33009478  0.34663976     0.09700
C475        C  0.81218101  0.30467571  0.32030898    -0.17100
C476        C  0.69171963  0.18369985  0.32918668    -0.16200
C477        C  0.66771277  0.15939416  0.35917977     0.07800
C478        C  0.64078214  0.13204504  0.39693391     0.09700
C479        C  0.61901033  0.10995218  0.43173289    -0.17100
C480        C  0.74809336  0.23943560  0.14165295    -0.16200
C481        C  0.74776638  0.23856428  0.08991367     0.07800
C482        C  0.74810570  0.23821866  0.02932951     0.09700
C483        C  0.74896982  0.23854632  0.97758993    -0.17100
C484        C  0.72138781  0.71357813  0.29575485     0.05400
C485        C  0.72010118  0.71198595  0.23564316    -0.10800
C486        C  0.74922092  0.74108545  0.20339870     0.02900
C487        C  0.77961136  0.77177627  0.23130470    -0.09300
C488        C  0.78090848  0.77337894  0.29139223     0.05400
C489        C  0.75178543  0.74428246  0.32356087    -0.08700
H490        H  0.69661038  0.68819990  0.21407280     0.11000
H491        H  0.80218542  0.79426348  0.20636966     0.08500
H492        H  0.75281988  0.74548487  0.37009992     0.08400
C493        C  0.72308985  0.71187909  0.82348271     0.05400
C494        C  0.72150821  0.71057408  0.88359501    -0.10800
C495        C  0.75061238  0.73968578  0.91584385     0.02900
C496        C  0.78129688  0.77008580  0.88794234    -0.09300
C497        C  0.78288877  0.77140090  0.82785470     0.05400
C498        C  0.75378835  0.74228602  0.79568123    -0.08700
H499        H  0.69772609  0.68707798  0.90516148     0.11000
H500        H  0.80378522  0.79265467  0.91288057     0.08500
H501        H  0.75498112  0.74333599  0.74914222     0.08400
C502        C  0.74711262  0.97388717  0.29588511     0.05400
C503        C  0.71643757  0.97361772  0.32368764    -0.10800
C504        C  0.68733607  0.97363487  0.29151706     0.02900
C505        C  0.68890238  0.97388043  0.23142277    -0.09300
C506        C  0.71956076  0.97414170  0.20351163     0.05400
C507        C  0.74866368  0.97413457  0.23576780    -0.08700
H508        H  0.71527291  0.97350821  0.37022751     0.11000
H509        H  0.66641965  0.97397038  0.20648424     0.08500
H510        H  0.77243058  0.97441369  0.21420163     0.08400
C511        C  0.74885898  0.97702175  0.82361975     0.05400
C512        C  0.75011555  0.97678799  0.88374235    -0.10800
C513        C  0.72100653  0.97683954  0.91588069     0.02900
C514        C  0.69065498  0.97714239  0.88784625    -0.09300
C515        C  0.68938419  0.97738071  0.82774516     0.05400
C516        C  0.71849630  0.97732720  0.79569308    -0.08700
H517        H  0.77357903  0.97649962  0.90540436     0.11000
H518        H  0.66809405  0.97711817  0.91269348     0.08500
H519        H  0.71748943  0.97744976  0.74914874     0.08400
C520        C  0.98652600  0.73946369  0.29564238     0.05400
C521        C  0.98631784  0.74072722  0.23551770    -0.10800
C522        C  0.98638112  0.71162345  0.20338594     0.02900
C523        C  0.98666973  0.68127011  0.23143115    -0.09300
C524        C  0.98688279  0.67999138  0.29153352     0.05400
C525        C  0.98681787  0.70909857  0.32357730    -0.08700
H526        H  0.98603968  0.76419170  0.21384887     0.11000
H527        H  0.98665305  0.65871214  0.20658980     0.08500
H528        H  0.98692020  0.70808549  0.37012176     0.08400
C529        C  0.98341268  0.73772977  0.82337539     0.05400
C530        C  0.98368270  0.73928227  0.88349454    -0.10800
C531        C  0.98370019  0.71018190  0.91573924     0.02900
C532        C  0.98342766  0.67952469  0.88781298    -0.09300
C533        C  0.98315960  0.67795596  0.82771697     0.05400
C534        C  0.98313190  0.70705527  0.79555985    -0.08700
H535        H  0.98396843  0.76304653  0.90507075     0.11000
H536        H  0.98352396  0.65704380  0.91274063     0.08500
H537        H  0.98300301  0.70588809  0.74902005     0.08400
O538        O  0.90115109  0.50749366  0.49515716    -0.85900
C539        C  0.59500427  0.58538746  0.64286212     1.14100
O540        O  0.94548876  0.97568263  0.55969065    -1.33700
O541        O  0.56933466  0.59180707  0.49595449    -0.87400
O542        O  0.86901427  0.94382339  0.49604020    -0.88100
O543        O  0.94600362  0.93683593  0.43962820    -0.76900
O544        O  0.98525857  0.55109567  0.50540294    -0.99000
C545        C  0.55346547  0.97546267  0.45418322     1.24200
O546        O  0.98511739  0.93605898  0.55956546    -1.33900
Mn547      Mn  0.98516522  0.97567260  0.62124110     1.82100
O548        O  0.52399805  0.97562510  0.43954095    -0.76000
O549        O  0.60085046  0.55967210  0.49491602    -0.85400
C550        C  0.55387758  0.97596539  0.66485067     1.15300
C551        C  0.59482691  0.58555363  0.47636789     1.10000
O552        O  0.94627164  0.93658000  0.67963144    -0.76900
O553        O  0.52477732  0.51534212  0.55962275    -1.30600
O554        O  0.90990974  0.90027860  0.61397733    -0.96100
C555        C  0.98512952  0.86601871  0.47616974     1.08700
Mn556      Mn  0.57867751  0.51826962  0.55930087     1.48600
O557        O  0.95324227  0.85996875  0.49483946    -0.85300
Mn558      Mn  0.89157344  0.92468574  0.55993638     1.49600
O559        O  0.90095134  0.50747635  0.62356029    -0.89200
C560        C  0.98539491  0.54443962  0.45439685     1.21900
C561        C  0.87544950  0.97569026  0.64309046     1.13900
Mn562      Mn  0.98510088  0.97573050  0.49801144     1.81000
O563        O  0.56053546  0.97582732  0.61384480    -0.94300
Mn564      Mn  0.94256843  0.52665091  0.55954034     1.49300
C565        C  0.87527075  0.97559877  0.47653576     1.10500
Mn566      Mn  0.53609074  0.93313936  0.55971202     1.49900
C567        C  0.98504716  0.86584971  0.64273091     1.13400
O568        O  0.90970830  0.90047238  0.50528727    -1.00100
O569        O  0.60125299  0.55989423  0.62327609    -0.89800
C570        C  0.91639121  0.90735227  0.45429763     1.24600
O571        O  0.56032223  0.97558736  0.50516877    -1.00500
O572        O  0.56912113  0.59141326  0.62431783    -0.87900
O573        O  0.51694205  0.89172970  0.62410277    -0.87500
O574        O  0.86940157  0.94380649  0.62442377    -0.87600
Mn575      Mn  0.52770912  0.56923940  0.55993856     1.47900
O576        O  0.52426714  0.97580173  0.67957646    -0.76000
C577        C  0.91679267  0.90696199  0.66496577     1.17700
O578        O  0.98522535  0.51482854  0.43967079    -0.74800
O579        O  0.98506167  0.51457230  0.67970934    -0.74400
Mn580      Mn  0.93412202  0.88214285  0.55932877     1.51100
O581        O  0.51691708  0.89152263  0.49569650    -0.86700
O582        O  0.98502490  0.55088968  0.61407573    -0.94300
O583        O  0.95326670  0.85958993  0.62322950    -0.89300
C584        C  0.98490389  0.54403934  0.66506279     1.15500
C585        C  0.98321727  0.64671076  0.79878892    -0.16200
C586        C  0.98349604  0.62132294  0.77251374     0.07800
C587        C  0.98400301  0.59274670  0.73882199     0.09700
C588        C  0.98446672  0.56961871  0.70701343    -0.17100
C589        C  0.98367705  0.76764033  0.78994589    -0.16200
C590        C  0.98404067  0.79197876  0.75994935     0.06300
C591        C  0.98452959  0.81936156  0.72218012     0.09700
C592        C  0.98487473  0.84146375  0.68736803    -0.17100
C593        C  0.98587661  0.57052831  0.41250374    -0.16200
C594        C  0.98633357  0.59412823  0.38068741     0.07800
C595        C  0.98675924  0.62316515  0.34693643     0.09700
C596        C  0.98693330  0.64876546  0.32058156    -0.17100
C597        C  0.98626824  0.76914043  0.32895711    -0.16200
C598        C  0.98596011  0.79315596  0.35888995     0.07800
C599        C  0.98555987  0.82009015  0.39663323     0.09700
C600        C  0.98527652  0.84185226  0.43146611    -0.17100
C601        C  0.98595166  0.71272975  0.14161364    -0.16200
C602        C  0.98545285  0.71304323  0.08985958     0.07800
C603        C  0.98477770  0.71268799  0.02925557     0.09700
C604        C  0.98422586  0.71181545  0.97750469    -0.17100
C605        C  0.85128174  0.97583327  0.68779539    -0.16200
C606        C  0.82951262  0.97610490  0.72262782     0.07800
C607        C  0.80256732  0.97648670  0.76036826     0.09700
C608        C  0.77854257  0.97677959  0.79030001    -0.17100
C609        C  0.57995982  0.97643712  0.70674740    -0.16200
C610        C  0.60354769  0.97688045  0.73857792     0.07800
C611        C  0.63257021  0.97728801  0.77234536     0.09700
C612        C  0.65816257  0.97744728  0.79870560    -0.17100
C613        C  0.85087941  0.97541860  0.43190192    -0.16200
C614        C  0.82876878  0.97505925  0.39709179     0.07800
C615        C  0.80137488  0.97454939  0.35932409     0.09700
C616        C  0.77702830  0.97416842  0.32932473    -0.17100
C617        C  0.57903514  0.97501194  0.41222735    -0.16200
C618        C  0.60215079  0.97453251  0.38040732     0.07800
C619        C  0.63071347  0.97400513  0.34670559     0.09700
C620        C  0.65609404  0.97370949  0.32043081    -0.17100
C621        C  0.72119622  0.97465285  0.14174988    -0.16200
C622        C  0.72206917  0.97520015  0.09000103     0.07800
C623        C  0.72242305  0.97587887  0.02940055     0.09700
C624        C  0.72210872  0.97638866  0.97764899    -0.17100
C625        C  0.81417393  0.80268846  0.79894338    -0.16200
C626        C  0.83958007  0.82832092  0.77261758     0.07800
C627        C  0.86814068  0.85734917  0.73881439     0.09700
C628        C  0.89123633  0.88091414  0.70691989    -0.17100
C629        C  0.61941116  0.60956688  0.68749302    -0.16200
C630        C  0.64151712  0.63132555  0.72229118     0.07800
C631        C  0.66888330  0.65823561  0.76004804     0.09700
C632        C  0.69320121  0.68222579  0.79004560    -0.17100
C633        C  0.89035421  0.88178256  0.41234520    -0.16200
C634        C  0.86680496  0.85867271  0.38044822     0.07800
C635        C  0.83779729  0.83009476  0.34663976     0.09700
C636        C  0.81218098  0.80467569  0.32030899    -0.17100
C637        C  0.69171962  0.68369986  0.32918663    -0.16200
C638        C  0.66771277  0.65939417  0.35917972     0.07800
C639        C  0.64078223  0.63204502  0.39693390     0.09700
C640        C  0.61901038  0.60995218  0.43173288    -0.17100
C641        C  0.74809334  0.73943555  0.14165293    -0.16200
C642        C  0.74776648  0.73856425  0.08991366     0.07800
C643        C  0.74810568  0.73821864  0.02932950     0.09700
C644        C  0.74896983  0.73854632  0.97758991    -0.17100
loop_ 
_geom_bond_atom_site_label_1 
_geom_bond_atom_site_label_2 
_geom_bond_distance 
_geom_bond_site_symmetry_2 
_ccdc_geom_bond_type 
C1            C2   1.401       .  A
C1            C6   1.401       .  A
C1          C154   1.439       .  S
C2            C3   1.402       .  A
C2            H7   1.085       .  S
C3            C4   1.402       .  A
C3          C158   1.439       .  S
C4            C5   1.400       .  A
C4            H8   1.085       .  S
C5            C6   1.401       .  A
C5          C153   1.439       .  S
C6            H9   1.085       .  S
C10          C11   1.401       .  A
C10          C15   1.401       .  A
C10         C149   1.439       .  S
C11          C12   1.402       .  A
C11          H16   1.085       .  S
C12          C13   1.402       .  A
C12         C161   1.439       .  S
C13          C14   1.400       .  A
C13          H17   1.085       .  S
C14          C15   1.401       .  A
C14         C142   1.439       .  S
C15          H18   1.085       .  S
C19          C20   1.401       .  A
C19          C24   1.401       .  A
C19         C133   1.440       .  S
C20          C21   1.401       .  A
C20          H25   1.085       .  S
C21          C22   1.401       .  A
C21         C137   1.440       .  S
C22          C23   1.402       .  A
C22          H26   1.085       .  S
C23          C24   1.402       .  A
C23         C138   1.439       .  S
C24          H27   1.085       .  S
C28          C29   1.401       .  A
C28          C33   1.401       .  A
C28         C125   1.440       .  S
C29          C30   1.402       .  A
C29          H34   1.085       .  S
C30          C31   1.402       .  A
C30         C141   1.439       .  S
C31          C32   1.401       .  A
C31          H35   1.085       .  S
C32          C33   1.401       .  A
C32         C129   1.440       .  S
C33          H36   1.085       .  S
C37          C38   1.401       .  A
C37          C42   1.401       .  A
C37         C114   1.440       .  S
C38          C39   1.402       .  A
C38          H43   1.085       .  S
C39          C40   1.402       .  A
C39         C118   1.439       .  S
C40          C41   1.401       .  A
C40          H44   1.085       .  S
C41          C42   1.401       .  A
C41         C113   1.440       .  S
C42          H45   1.085       .  S
C46          C47   1.401       .  A
C46          C51   1.401       .  A
C46         C106   1.440       .  S
C47          C48   1.402       .  A
C47          H52   1.085       .  S
C48          C49   1.402       .  A
C48         C121   1.439       .  S
C49          C50   1.401       .  A
C49          H53   1.085       .  S
C50          C51   1.401       .  A
C50         C102   1.440       .  S
C51          H54   1.085       .  S
O55         Mn81   2.092       .  S
O55         C243   1.270   1_545  A
C56         C146   1.434       .  S
C56          O89   1.270       .  A
C56          O86   1.270       .  A
O57         Mn64   2.158       .  S
O57         Mn75   2.135       .  S
O57         Mn79   2.158       .  S
O57        Mn242   2.135       .  S
O58         Mn92   2.092       .  S
O58          C68   1.270       .  A
O59         Mn75   2.092       .  S
O59          C82   1.270       .  A
O60         Mn79   2.089       .  S
O60          C87   1.249       .  A
O61         Mn81   1.966       .  S
O61        Mn414   1.965       .  S
O61          C77   1.219       .  S
C62         C134   1.434       .  S
C62          O65   1.249       .  A
C62          O88   1.219       .  S
O63         Mn64   2.158       .  S
O63         Mn97   2.136       .  S
O63         Mn79   2.158       .  S
O63        Mn405   2.135       .  S
Mn64         O69   2.089       .  S
Mn64        O415   2.089       .  S
Mn64        O257   2.089       .  S
Mn64        O553   2.158       .  S
O65        Mn401   2.089   1_455  S
O66         Mn73   2.092       .  S
O66          C68   1.270       .  A
C67         C126   1.434       .  S
C67          O93   1.249       .  A
C67          O80   1.219       .  S
C68         C157   1.434       .  S
O69          C94   1.249       .  A
O70         Mn73   2.135       .  S
O70         Mn92   2.135       .  S
O70        Mn547   2.158   1_445  S
O70        Mn562   2.158   1_445  S
O71         Mn75   1.966       .  S
O71         Mn97   1.965       .  S
O71          C94   1.219       .  S
C72         C117   1.434       .  S
C72          O74   1.270       .  A
C72         O420   1.270       .  A
Mn73         O86   2.092       .  S
Mn73        O249   1.966   1_545  S
Mn73        O241   1.965   1_545  S
O74         Mn97   2.092       .  S
Mn75         O91   2.092       .  S
Mn75         O85   1.965       .  S
O76         Mn81   2.092       .  S
O76         C239   1.270   1_545  A
C77         C110   1.434       .  S
C77          O95   1.249       .  A
C78         C122   1.434       .  S
C78          O91   1.270       .  A
C78         O237   1.270       .  A
Mn79        O387   2.089       .  S
Mn79        O256   2.089       .  S
Mn79        O553   2.158       .  S
O80         Mn83   1.966       .  S
O80        Mn234   1.965       .  S
Mn81        O218   2.135   1_545  S
Mn81         O99   1.965       .  S
C82         C130   1.434       .  S
C82         O216   1.270       .  A
Mn83         O90   2.092       .  S
Mn83         O98   2.092       .  S
Mn83        O385   2.135   1_455  S
Mn83         O88   1.965       .  S
C84         C109   1.434       .  S
C84         O100   1.270       .  A
C84         O412   1.270       .  A
O85         Mn97   1.966       .  S
O85          C87   1.219       .  S
C87         C150   1.434       .  S
O88        Mn234   1.966       .  S
O89         Mn92   2.092       .  S
O90         C406   1.270   1_455  A
Mn92        O383   1.965   1_455  S
Mn92        O421   1.966   1_455  S
O93        Mn386   2.089   1_455  S
C94         C145   1.434       .  S
O95        Mn240   2.089   1_545  S
O96        Mn225   2.089   1_545  S
O96         C101   1.249       .  A
Mn97        O100   2.092       .  S
O98         C394   1.270   1_455  A
O99        Mn414   1.966       .  S
O99         C101   1.219       .  S
C101        C105   1.434       .  S
C102        C103   1.206       .  T
C103        C104   1.411       .  S
C104        C105   1.205       .  T
C106        C107   1.205       .  T
C107        C108   1.411       .  S
C108        C109   1.205       .  T
C110        C111   1.205       .  T
C111        C112   1.411       .  S
C112        C113   1.206       .  T
C114        C115   1.205       .  T
C115        C116   1.411       .  S
C116        C117   1.205       .  T
C118        C119   1.205       .  T
C119        C120   1.411       .  S
C120        C121   1.205   1_554  T
C122        C123   1.205       .  T
C123        C124   1.411       .  S
C124        C125   1.205       .  T
C126        C127   1.205       .  T
C127        C128   1.411       .  S
C128        C129   1.205       .  T
C130        C131   1.205       .  T
C131        C132   1.411       .  S
C132        C133   1.205       .  T
C134        C135   1.205       .  T
C135        C136   1.411       .  S
C136        C137   1.205       .  T
C138        C139   1.205       .  T
C139        C140   1.411       .  S
C140        C141   1.205   1_554  T
C142        C143   1.205       .  T
C143        C144   1.411       .  S
C144        C145   1.205       .  T
C146        C147   1.205       .  T
C147        C148   1.411       .  S
C148        C149   1.205       .  T
C150        C151   1.205       .  T
C151        C152   1.411       .  S
C152        C153   1.205       .  T
C154        C155   1.205       .  T
C155        C156   1.411       .  S
C156        C157   1.205       .  T
C158        C159   1.205       .  T
C159        C160   1.411       .  S
C160        C161   1.205   1_554  T
C162        C163   1.401       .  A
C162        C167   1.401       .  A
C162        C315   1.439       .  S
C163        C164   1.402       .  A
C163        H168   1.085       .  S
C164        C165   1.402       .  A
C164        C319   1.439       .  S
C165        C166   1.400       .  A
C165        H169   1.085       .  S
C166        C167   1.401       .  A
C166        C314   1.439       .  S
C167        H170   1.085       .  S
C171        C172   1.401       .  A
C171        C176   1.401       .  A
C171        C310   1.439       .  S
C172        C173   1.402       .  A
C172        H177   1.085       .  S
C173        C174   1.402       .  A
C173        C322   1.439       .  S
C174        C175   1.400       .  A
C174        H178   1.085       .  S
C175        C176   1.401       .  A
C175        C303   1.439       .  S
C176        H179   1.085       .  S
C180        C181   1.401       .  A
C180        C185   1.401       .  A
C180        C294   1.440       .  S
C181        C182   1.401       .  A
C181        H186   1.085       .  S
C182        C183   1.401       .  A
C182        C298   1.440       .  S
C183        C184   1.402       .  A
C183        H187   1.085       .  S
C184        C185   1.402       .  A
C184        C299   1.439       .  S
C185        H188   1.085       .  S
C189        C190   1.401       .  A
C189        C194   1.401       .  A
C189        C286   1.440       .  S
C190        C191   1.402       .  A
C190        H195   1.085       .  S
C191        C192   1.402       .  A
C191        C302   1.439       .  S
C192        C193   1.401       .  A
C192        H196   1.085       .  S
C193        C194   1.401       .  A
C193        C290   1.440       .  S
C194        H197   1.085       .  S
C198        C199   1.401       .  A
C198        C203   1.401       .  A
C198        C275   1.440       .  S
C199        C200   1.402       .  A
C199        H204   1.085       .  S
C200        C201   1.402       .  A
C200        C279   1.439       .  S
C201        C202   1.401       .  A
C201        H205   1.085       .  S
C202        C203   1.401       .  A
C202        C274   1.440       .  S
C203        H206   1.085       .  S
C207        C208   1.401       .  A
C207        C212   1.401       .  A
C207        C267   1.440       .  S
C208        C209   1.402       .  A
C208        H213   1.085       .  S
C209        C210   1.402       .  A
C209        C282   1.439       .  S
C210        C211   1.401       .  A
C210        H214   1.085       .  S
C211        C212   1.401       .  A
C211        C263   1.440       .  S
C212        H215   1.085       .  S
O216       Mn242   2.092       .  S
C217        C307   1.434       .  S
C217        O250   1.270       .  A
C217        O247   1.270       .  A
O218       Mn225   2.158       .  S
O218       Mn236   2.135       .  S
O218       Mn240   2.158       .  S
O219       Mn253   2.092       .  S
O219        C229   1.270       .  A
O220       Mn236   2.092       .  S
O220        C243   1.270       .  A
O221       Mn240   2.089       .  S
O221        C248   1.249       .  A
O222       Mn575   1.965       .  S
O222       Mn242   1.966       .  S
O222        C238   1.219       .  S
C223        C295   1.434       .  S
C223        O226   1.249       .  A
C223        O249   1.219       .  S
O224       Mn566   2.135       .  S
O224       Mn225   2.158       .  S
O224       Mn258   2.136       .  S
O224       Mn240   2.158       .  S
Mn225       O576   2.089       .  S
Mn225       O230   2.089       .  S
Mn225       O392   2.158   1_565  S
O226       Mn562   2.089   1_455  S
O227       Mn234   2.092       .  S
O227        C229   1.270       .  A
C228        C287   1.434       .  S
C228        O254   1.249       .  A
C228        O241   1.219       .  S
C229        C318   1.434       .  S
O230        C255   1.249       .  A
O231       Mn386   2.158   1_455  S
O231       Mn234   2.135       .  S
O231       Mn253   2.135       .  S
O231       Mn401   2.158   1_455  S
O232       Mn236   1.966       .  S
O232       Mn258   1.965       .  S
O232        C255   1.219       .  S
C233        C278   1.434       .  S
C233        O581   1.270       .  A
C233        O235   1.270       .  A
Mn234       O247   2.092       .  S
O235       Mn258   2.092       .  S
Mn236       O252   2.092       .  S
Mn236       O246   1.965       .  S
O237       Mn242   2.092       .  S
C238        C271   1.434       .  S
C238        O256   1.249       .  A
C239        C283   1.434       .  S
C239        O252   1.270       .  A
Mn240       O548   2.089       .  S
Mn240       O392   2.158   1_565  S
O241       Mn244   1.966       .  S
Mn242       O260   1.965       .  S
C243        C291   1.434       .  S
Mn244       O251   2.092       .  S
Mn244       O259   2.092       .  S
Mn244       O546   2.135   1_455  S
Mn244       O249   1.965       .  S
C245        C270   1.434       .  S
C245        O573   1.270       .  A
C245        O261   1.270       .  A
O246       Mn258   1.966       .  S
O246        C248   1.219       .  S
C248        C311   1.434       .  S
O250       Mn253   2.092       .  S
O251        C567   1.270   1_455  A
Mn253       O544   1.965   1_455  S
Mn253       O582   1.966   1_455  S
O254       Mn547   2.089   1_455  S
C255        C306   1.434       .  S
O257        C262   1.249       .  A
Mn258       O261   2.092       .  S
O259        C555   1.270   1_455  A
O260       Mn575   1.966       .  S
O260        C262   1.219       .  S
C262        C266   1.434       .  S
C263        C264   1.206       .  T
C264        C265   1.411       .  S
C265        C266   1.205       .  T
C267        C268   1.205       .  T
C268        C269   1.411       .  S
C269        C270   1.205       .  T
C271        C272   1.205       .  T
C272        C273   1.411       .  S
C273        C274   1.206       .  T
C275        C276   1.205       .  T
C276        C277   1.411       .  S
C277        C278   1.205       .  T
C279        C280   1.205       .  T
C280        C281   1.411       .  S
C281        C282   1.205   1_554  T
C283        C284   1.205       .  T
C284        C285   1.411       .  S
C285        C286   1.205       .  T
C287        C288   1.205       .  T
C288        C289   1.411       .  S
C289        C290   1.205       .  T
C291        C292   1.205       .  T
C292        C293   1.411       .  S
C293        C294   1.205       .  T
C295        C296   1.205       .  T
C296        C297   1.411       .  S
C297        C298   1.205       .  T
C299        C300   1.205       .  T
C300        C301   1.411       .  S
C301        C302   1.205   1_554  T
C303        C304   1.205       .  T
C304        C305   1.411       .  S
C305        C306   1.205       .  T
C307        C308   1.205       .  T
C308        C309   1.411       .  S
C309        C310   1.205       .  T
C311        C312   1.205       .  T
C312        C313   1.411       .  S
C313        C314   1.205       .  T
C315        C316   1.205       .  T
C316        C317   1.411       .  S
C317        C318   1.205       .  T
C319        C320   1.205       .  T
C320        C321   1.411       .  S
C321        C322   1.205   1_554  T
C323        C324   1.401       .  A
C323        C328   1.401       .  A
C323        C476   1.439       .  S
C324        C325   1.402       .  A
C324        H329   1.085       .  S
C325        C326   1.402       .  A
C325        C480   1.439       .  S
C326        C327   1.400       .  A
C326        H330   1.085       .  S
C327        C328   1.401       .  A
C327        C475   1.439       .  S
C328        H331   1.085       .  S
C332        C333   1.401       .  A
C332        C337   1.401       .  A
C332        C471   1.439       .  S
C333        C334   1.402       .  A
C333        H338   1.085       .  S
C334        C335   1.402       .  A
C334        C483   1.439       .  S
C335        C336   1.400       .  A
C335        H339   1.085       .  S
C336        C337   1.401       .  A
C336        C464   1.439       .  S
C337        H340   1.085       .  S
C341        C342   1.401       .  A
C341        C346   1.401       .  A
C341        C455   1.440       .  S
C342        C343   1.401       .  A
C342        H347   1.085       .  S
C343        C344   1.401       .  A
C343        C459   1.440       .  S
C344        C345   1.402       .  A
C344        H348   1.085       .  S
C345        C346   1.402       .  A
C345        C460   1.439       .  S
C346        H349   1.085       .  S
C350        C351   1.401       .  A
C350        C355   1.401       .  A
C350        C447   1.440       .  S
C351        C352   1.402       .  A
C351        H356   1.085       .  S
C352        C353   1.402       .  A
C352        C463   1.439       .  S
C353        C354   1.401       .  A
C353        H357   1.085       .  S
C354        C355   1.401       .  A
C354        C451   1.440       .  S
C355        H358   1.085       .  S
C359        C360   1.401       .  A
C359        C364   1.401       .  A
C359        C436   1.440       .  S
C360        C361   1.402       .  A
C360        H365   1.085       .  S
C361        C362   1.402       .  A
C361        C440   1.439       .  S
C362        C363   1.401       .  A
C362        H366   1.085       .  S
C363        C364   1.401       .  A
C363        C435   1.440       .  S
C364        H367   1.085       .  S
C368        C369   1.401       .  A
C368        C373   1.401       .  A
C368        C428   1.440       .  S
C369        C370   1.402       .  A
C369        H374   1.085       .  S
C370        C371   1.402       .  A
C370        C443   1.439       .  S
C371        C372   1.401       .  A
C371        H375   1.085       .  S
C372        C373   1.401       .  A
C372        C424   1.440       .  S
C373        H376   1.085       .  S
O377       Mn403   2.092       .  S
O377        C565   1.270   1_545  A
C378        C468   1.434       .  S
C378        O411   1.270       .  A
C378        O408   1.270       .  A
O379       Mn386   2.158       .  S
O379       Mn397   2.135       .  S
O379       Mn401   2.158       .  S
O379       Mn564   2.135       .  S
O380       Mn414   2.092       .  S
O380        C390   1.270       .  A
O381       Mn397   2.092       .  S
O381        C404   1.270       .  A
O382       Mn401   2.089       .  S
O382        C409   1.249       .  A
O383       Mn403   1.966       .  S
O383        C399   1.219       .  S
C384        C456   1.434       .  S
C384        O387   1.249       .  A
C384        O410   1.219       .  S
O385       Mn386   2.158       .  S
O385       Mn419   2.136       .  S
O385       Mn401   2.158       .  S
Mn386       O391   2.089       .  S
Mn386       O579   2.089       .  S
O388       Mn395   2.092       .  S
O388        C390   1.270       .  A
C389        C448   1.434       .  S
C389        O415   1.249       .  A
C389        O402   1.219       .  S
C390        C479   1.434       .  S
O391        C416   1.249       .  A
O392       Mn395   2.135       .  S
O392       Mn414   2.135       .  S
O393       Mn397   1.966       .  S
O393       Mn419   1.965       .  S
O393        C416   1.219       .  S
C394        C439   1.434       .  S
C394        O396   1.270       .  A
Mn395       O408   2.092       .  S
Mn395       O571   1.966   1_545  S
Mn395       O563   1.965   1_545  S
O396       Mn419   2.092       .  S
Mn397       O413   2.092       .  S
Mn397       O407   1.965       .  S
O398       Mn403   2.092       .  S
O398        C561   1.270   1_545  A
C399        C432   1.434       .  S
C399        O417   1.249       .  A
C400        C444   1.434       .  S
C400        O559   1.270       .  A
C400        O413   1.270       .  A
Mn401       O578   2.089       .  S
O402       Mn556   1.965       .  S
O402       Mn405   1.966       .  S
Mn403       O540   2.135   1_545  S
Mn403       O421   1.965       .  S
C404        C452   1.434       .  S
C404        O538   1.270       .  A
Mn405       O412   2.092       .  S
Mn405       O420   2.092       .  S
Mn405       O410   1.965       .  S
C406        C431   1.434       .  S
C406        O422   1.270       .  A
O407       Mn419   1.966       .  S
O407        C409   1.219       .  S
C409        C472   1.434       .  S
O410       Mn556   1.966       .  S
O411       Mn414   2.092       .  S
C416        C467   1.434       .  S
O417       Mn562   2.089   1_545  S
O418       Mn547   2.089   1_545  S
O418        C423   1.249       .  A
Mn419       O422   2.092       .  S
O421        C423   1.219       .  S
C423        C427   1.434       .  S
C424        C425   1.206       .  T
C425        C426   1.411       .  S
C426        C427   1.205       .  T
C428        C429   1.205       .  T
C429        C430   1.411       .  S
C430        C431   1.205       .  T
C432        C433   1.205       .  T
C433        C434   1.411       .  S
C434        C435   1.206       .  T
C436        C437   1.205       .  T
C437        C438   1.411       .  S
C438        C439   1.205       .  T
C440        C441   1.205       .  T
C441        C442   1.411       .  S
C442        C443   1.205   1_554  T
C444        C445   1.205       .  T
C445        C446   1.411       .  S
C446        C447   1.205       .  T
C448        C449   1.205       .  T
C449        C450   1.411       .  S
C450        C451   1.205       .  T
C452        C453   1.205       .  T
C453        C454   1.411       .  S
C454        C455   1.205       .  T
C456        C457   1.205       .  T
C457        C458   1.411       .  S
C458        C459   1.205       .  T
C460        C461   1.205       .  T
C461        C462   1.411       .  S
C462        C463   1.205   1_554  T
C464        C465   1.205       .  T
C465        C466   1.411       .  S
C466        C467   1.205       .  T
C468        C469   1.205       .  T
C469        C470   1.411       .  S
C470        C471   1.205       .  T
C472        C473   1.205       .  T
C473        C474   1.411       .  S
C474        C475   1.205       .  T
C476        C477   1.205       .  T
C477        C478   1.411       .  S
C478        C479   1.205       .  T
C480        C481   1.205       .  T
C481        C482   1.411       .  S
C482        C483   1.205   1_554  T
C484        C485   1.401       .  A
C484        C489   1.401       .  A
C484        C637   1.439       .  S
C485        C486   1.402       .  A
C485        H490   1.085       .  S
C486        C487   1.402       .  A
C486        C641   1.439       .  S
C487        C488   1.400       .  A
C487        H491   1.085       .  S
C488        C489   1.401       .  A
C488        C636   1.439       .  S
C489        H492   1.085       .  S
C493        C494   1.401       .  A
C493        C498   1.401       .  A
C493        C632   1.439       .  S
C494        C495   1.402       .  A
C494        H499   1.085       .  S
C495        C496   1.402       .  A
C495        C644   1.439       .  S
C496        C497   1.400       .  A
C496        H500   1.085       .  S
C497        C498   1.401       .  A
C497        C625   1.439       .  S
C498        H501   1.085       .  S
C502        C503   1.401       .  A
C502        C507   1.401       .  A
C502        C616   1.440       .  S
C503        C504   1.401       .  A
C503        H508   1.085       .  S
C504        C505   1.401       .  A
C504        C620   1.440       .  S
C505        C506   1.402       .  A
C505        H509   1.085       .  S
C506        C507   1.402       .  A
C506        C621   1.439       .  S
C507        H510   1.085       .  S
C511        C512   1.401       .  A
C511        C516   1.401       .  A
C511        C608   1.440       .  S
C512        C513   1.402       .  A
C512        H517   1.085       .  S
C513        C514   1.402       .  A
C513        C624   1.439       .  S
C514        C515   1.401       .  A
C514        H518   1.085       .  S
C515        C516   1.401       .  A
C515        C612   1.440       .  S
C516        H519   1.085       .  S
C520        C521   1.401       .  A
C520        C525   1.401       .  A
C520        C597   1.440       .  S
C521        C522   1.402       .  A
C521        H526   1.085       .  S
C522        C523   1.402       .  A
C522        C601   1.439       .  S
C523        C524   1.401       .  A
C523        H527   1.085       .  S
C524        C525   1.401       .  A
C524        C596   1.440       .  S
C525        H528   1.085       .  S
C529        C530   1.401       .  A
C529        C534   1.401       .  A
C529        C589   1.440       .  S
C530        C531   1.402       .  A
C530        H535   1.085       .  S
C531        C532   1.402       .  A
C531        C604   1.439       .  S
C532        C533   1.401       .  A
C532        H536   1.085       .  S
C533        C534   1.401       .  A
C533        C585   1.440       .  S
C534        H537   1.085       .  S
O538       Mn564   2.092       .  S
C539        C629   1.434       .  S
C539        O572   1.270       .  A
C539        O569   1.270       .  A
O540       Mn547   2.158       .  S
O540       Mn558   2.135       .  S
O540       Mn562   2.158       .  S
O541       Mn575   2.092       .  S
O541        C551   1.270       .  A
O542       Mn558   2.092       .  S
O542        C565   1.270       .  A
O543       Mn562   2.089       .  S
O543        C570   1.249       .  A
O544       Mn564   1.966       .  S
O544        C560   1.219       .  S
C545        C617   1.434       .  S
C545        O548   1.249       .  A
C545        O571   1.219       .  S
O546       Mn547   2.158       .  S
O546       Mn580   2.136       .  S
O546       Mn562   2.158       .  S
Mn547       O552   2.089       .  S
O549       Mn556   2.092       .  S
O549        C551   1.270       .  A
C550        C609   1.434       .  S
C550        O576   1.249       .  A
C550        O563   1.219       .  S
C551        C640   1.434       .  S
O552        C577   1.249       .  A
O553       Mn556   2.135       .  S
O553       Mn575   2.135       .  S
O554       Mn558   1.966       .  S
O554       Mn580   1.965       .  S
O554        C577   1.219       .  S
C555        C600   1.434       .  S
C555        O557   1.270       .  A
Mn556       O569   2.092       .  S
O557       Mn580   2.092       .  S
Mn558       O574   2.092       .  S
Mn558       O568   1.965       .  S
O559       Mn564   2.092       .  S
C560        C593   1.434       .  S
C560        O578   1.249       .  A
C561        C605   1.434       .  S
C561        O574   1.270       .  A
O563       Mn566   1.966       .  S
Mn564       O582   1.965       .  S
C565        C613   1.434       .  S
Mn566       O573   2.092       .  S
Mn566       O581   2.092       .  S
Mn566       O571   1.965       .  S
C567        C592   1.434       .  S
C567        O583   1.270       .  A
O568       Mn580   1.966       .  S
O568        C570   1.219       .  S
C570        C633   1.434       .  S
O572       Mn575   2.092       .  S
C577        C628   1.434       .  S
O579        C584   1.249       .  A
Mn580       O583   2.092       .  S
O582        C584   1.219       .  S
C584        C588   1.434       .  S
C585        C586   1.206       .  T
C586        C587   1.411       .  S
C587        C588   1.205       .  T
C589        C590   1.205       .  T
C590        C591   1.411       .  S
C591        C592   1.205       .  T
C593        C594   1.205       .  T
C594        C595   1.411       .  S
C595        C596   1.206       .  T
C597        C598   1.205       .  T
C598        C599   1.411       .  S
C599        C600   1.205       .  T
C601        C602   1.205       .  T
C602        C603   1.411       .  S
C603        C604   1.205   1_554  T
C605        C606   1.205       .  T
C606        C607   1.411       .  S
C607        C608   1.205       .  T
C609        C610   1.205       .  T
C610        C611   1.411       .  S
C611        C612   1.205       .  T
C613        C614   1.205       .  T
C614        C615   1.411       .  S
C615        C616   1.205       .  T
C617        C618   1.205       .  T
C618        C619   1.411       .  S
C619        C620   1.205       .  T
C621        C622   1.205       .  T
C622        C623   1.411       .  S
C623        C624   1.205   1_554  T
C625        C626   1.205       .  T
C626        C627   1.411       .  S
C627        C628   1.205       .  T
C629        C630   1.205       .  T
C630        C631   1.411       .  S
C631        C632   1.205       .  T
C633        C634   1.205       .  T
C634        C635   1.411       .  S
C635        C636   1.205       .  T
C637        C638   1.205       .  T
C638        C639   1.411       .  S
C639        C640   1.205       .  T
C641        C642   1.205       .  T
C642        C643   1.411       .  S
C643        C644   1.205   1_554  T
