geometry optimzed in LAMMPS
_audit_creation_date              2020-11-30 
_audit_creation_method            'lammps2cif' 
_symmetry_space_group_name_H-M    'P1' 
_symmetry_Int_Tables_number       1 
_symmetry_cell_setting            triclinic 
loop_ 
_symmetry_equiv_pos_as_xyz 
  x,y,z 
_cell_length_a                    24.04554007 
_cell_length_b                    21.38857805637302 
_cell_length_c                    25.817681296254996 
_cell_angle_alpha                 90.59599826258288 
_cell_angle_beta                  90.08472848124735 
_cell_angle_gamma                 89.90643921316578 
loop_ 
_atom_site_label 
_atom_site_type_symbol 
_atom_site_fract_x 
_atom_site_fract_y 
_atom_site_fract_z 
_atom_site_charge 
C1          C  0.85754988  0.85435059  0.87268525    -0.00300
O2          O  0.83266622  0.91042886  0.48278092    -0.78000
O3          O  0.82848327  0.83747086  0.24301567    -0.78000
O4          O  0.81517220  0.99745140  0.31924331    -0.78000
O5          O  0.84649638  0.71340337  0.39225969    -0.77900
O6          O  0.78760084  0.90343068  0.32431703    -0.78000
O7          O  0.80919279  0.79766804  0.42933194    -0.78000
O8          O  0.80699585  0.78859551  0.31692753    -0.78000
O9          O  0.80062923  0.97495521  0.42344512    -0.78000
C10         C  0.79811784  0.95182696  0.46824364     1.11700
C11         C  0.79905946  0.79826248  0.26751898     1.11600
C12         C  0.77974653  0.95661573  0.30797224     1.11800
C13         C  0.81041404  0.73781729  0.42192158     1.11600
O14         O  0.89443699  0.80001039  0.49894470    -0.78000
O15         O  0.89245489  0.94971215  0.26621281    -0.78000
O16         O  0.91617568  0.99310450  0.44088159    -0.78000
O17         O  0.91989894  0.75410005  0.31941933    -0.77900
O18         O  0.93313078  0.84123916  0.27941141    -0.78000
O19         O  0.94725862  0.89754676  0.45585894    -0.78000
O20         O  0.93704886  0.77590600  0.42586647    -0.77900
O21         O  0.93195007  0.00084951  0.33209718    -0.78000
Co22       Co  0.87950759  0.85111116  0.43943233     1.51500
Co23       Co  0.86144767  0.87235346  0.30291984     1.51700
Co24       Co  0.86753662  0.98493770  0.37878806     1.51600
Co25       Co  0.87196292  0.79356815  0.37286586     1.51500
O26         O  0.88598302  0.89000040  0.36955389    -1.39900
C27         C  0.93315458  0.77042702  0.47585456     1.11700
C28         C  0.93001808  0.98716144  0.28390991     1.11800
C29         C  0.94656535  0.95512839  0.46532583     1.11700
C30         C  0.94141086  0.78389131  0.28298004     1.11700
O31         O  0.95670770  0.44142595  0.93436199    -0.78000
O32         O  0.92537980  0.25407576  0.82411803    -0.78000
O33         O  0.86313922  0.28999504  0.98686043    -0.78000
O34         O  0.87616074  0.43468375  0.77407278    -0.77900
O35         O  0.91682976  0.24984432  0.92667174    -0.78000
O36         O  0.94304790  0.45236430  0.83119129    -0.78000
O37         O  0.89062044  0.32202220  0.77171000    -0.78000
O38         O  0.90747420  0.39008639  0.98896970    -0.78000
C39         C  0.95042585  0.41893692  0.97820313     1.11700
C40         C  0.92431841  0.27954645  0.78097276     1.11600
C41         C  0.90643367  0.25813977  0.97406637     1.11800
C42         C  0.92551509  0.45391382  0.78490924     1.11600
O43         O  0.83303349  0.49674034  0.84684979    -0.78000
O44         O  0.79606561  0.25191036  0.91806878    -0.78000
O45         O  0.80336473  0.40393086  0.00689983    -0.78000
O46         O  0.78587803  0.34413255  0.75804993    -0.77900
O47         O  0.80317662  0.26095862  0.80827417    -0.78000
O48         O  0.83634533  0.47851135  0.95435442    -0.78000
O49         O  0.77586752  0.41899052  0.84298404    -0.77900
O50         O  0.76848332  0.34770189  0.92012044    -0.78000
Co51       Co  0.89163109  0.45830104  0.89108734     1.51500
Co52       Co  0.86178388  0.26263256  0.87042092     1.51700
Co53       Co  0.84024177  0.37087057  0.94904269     1.51600
Co54       Co  0.83416803  0.36586928  0.81334600     1.51500
O55         O  0.87478762  0.36120974  0.88003001    -1.39900
C56         C  0.78600606  0.47541602  0.83517665     1.11700
C57         C  0.75903926  0.29186257  0.92894565     1.11800
C58         C  0.80586977  0.46095152  0.99375053     1.11700
C59         C  0.77727213  0.28699508  0.76938937     1.11700
O60         O  0.30534833  0.88944605  0.00180146    -0.78000
O61         O  0.29474338  0.84113640  0.75658620    -0.78000
O62         O  0.33573225  0.99404192  0.85273449    -0.78000
O63         O  0.32839324  0.73527605  0.90381922    -0.77900
O64         O  0.28275325  0.91201918  0.84540845    -0.78000
O65         O  0.28168050  0.82183745  0.91397419    -0.78000
O66         O  0.32890355  0.75765742  0.79902493    -0.78000
O67         O  0.34099312  0.96979104  0.95688556    -0.78000
C68         C  0.30794673  0.94812081  0.99325630     1.11700
C69         C  0.29542065  0.78211988  0.76436269     1.11600
C70         C  0.28923861  0.97012396  0.84274289     1.11800
C71         C  0.28449600  0.76328741  0.91651209     1.11600
O72         O  0.37973024  0.78364462  0.97799370    -0.78000
O73         O  0.37845954  0.94151283  0.77469505    -0.78000
O74         O  0.46450275  0.93541114  0.93180739    -0.78000
O75         O  0.45386738  0.77789982  0.81487809    -0.77900
O76         O  0.40147998  0.83128386  0.76390534    -0.78000
O77         O  0.41253622  0.88962919  0.98743743    -0.78000
O78         O  0.44297597  0.76013415  0.91849509    -0.77900
O79         O  0.44691238  0.95896605  0.83055896    -0.78000
Co80       Co  0.34770164  0.86171605  0.94433726     1.51500
Co81       Co  0.34310132  0.86631499  0.81075406     1.51700
Co82       Co  0.39774885  0.95705655  0.89232609     1.51600
Co83       Co  0.38971603  0.76541753  0.86003435     1.51500
O84         O  0.38474269  0.86183192  0.87618002    -1.39900
C85         C  0.42687423  0.76002122  0.96528750     1.11700
C86         C  0.42759476  0.96188937  0.78483454     1.11800
C87         C  0.45834356  0.91252784  0.97548961     1.11700
C88         C  0.44417054  0.79953975  0.77119383     1.11700
C89         C  0.35994180  0.36149764  0.87440992    -0.00300
C90         C  0.35569127  0.86790323  0.37515740    -0.00300
C91         C  0.86674209  0.36180530  0.37817507    -0.00300
O92         O  0.14937411  0.08091504  0.74695668    -0.78000
O93         O  0.16168223  0.14858376  0.53033927    -0.78000
O94         O  0.19303255  0.01457334  0.58972768    -0.78000
O95         O  0.18384120  0.21516609  0.68836345    -0.77900
O96         O  0.13136912  0.04057086  0.53034043    -0.78000
O97         O  0.11651769  0.18946463  0.74194770    -0.78000
O98         O  0.20531959  0.20282730  0.58830827    -0.78000
O99         O  0.20054887  0.02714540  0.69408584    -0.78000
C100        C  0.19170898  0.04902899  0.73824671     1.11700
C101        C  0.20273208  0.17962836  0.54417337     1.11600
C102        C  0.17780155  0.01523204  0.54274746     1.11800
C103        C  0.16388779  0.21461396  0.73347069     1.11600
O104        O  0.02577469  0.15187939  0.66792928    -0.78000
O105        O  0.03141081  0.07549939  0.59522543    -0.78000
O106        O  0.07699403  0.00544608  0.70587480    -0.78000
O107        O  0.08325138  0.22372968  0.56062126    -0.77900
O108        O  0.05616662  0.14281460  0.51030411    -0.78000
O109        O  0.04218195  0.08455684  0.75439997    -0.78000
O110        O  0.07015557  0.23991094  0.66609011    -0.77900
O111        O  0.07710719  0.98850488  0.59928752    -0.78000
Co112      Co  0.08914362  0.11252070  0.70167043     1.51500
Co113      Co  0.09711381  0.11625572  0.56814710     1.51700
Co114      Co  0.13770801  0.01690233  0.64672181     1.51600
Co115      Co  0.13646806  0.21247370  0.62647311     1.51500
O116        O  0.13204495  0.11470052  0.63681608    -1.39900
C117        C  0.02631491  0.20978204  0.67405913     1.11700
C118        C  0.03415377  0.01825512  0.58651611     1.11800
C119        C  0.04367059  0.02670866  0.74206005     1.11700
C120        C  0.05471532  0.20092133  0.52148463     1.11700
O121        O  0.07167971  0.71219674  0.04808203    -0.78000
O122        O  0.08952688  0.50641617  0.20371395    -0.78000
O123        O  0.03314957  0.55715404  0.08997622    -0.78000
O124        O  0.02651975  0.64636888  0.15886279    -0.77900
O125        O  0.08887698  0.47809754  0.09927661    -0.78000
O126        O  0.06651706  0.73643732  0.15399520    -0.78000
O127        O  0.05110524  0.58704864  0.24804547    -0.78000
O128        O  0.04561255  0.62622957  0.00255487    -0.78000
C129        C  0.04193875  0.68491946  0.01169664     1.11700
C130        C  0.05556457  0.52844340  0.23961826     1.11600
C131        C  0.04238170  0.49945312  0.08671929     1.11800
C132        C  0.02517620  0.70403452  0.16623437     1.11600
O133        O  0.18330883  0.72194269  0.16896032    -0.78000
O134        O  0.19827193  0.51817070  0.08010317    -0.78000
O135        O  0.15094613  0.64453177  0.01366392    -0.78000
O136        O  0.15710171  0.58971751  0.23529983    -0.77900
O137        O  0.21153693  0.54453004  0.18049055    -0.78000
O138        O  0.19615908  0.70440606  0.06657823    -0.78000
O139        O  0.12179566  0.69394954  0.22756993    -0.77900
O140        O  0.13137327  0.53208734  0.02239908    -0.78000
Co141      Co  0.13065116  0.71107452  0.11029377     1.51500
Co142      Co  0.14729295  0.51952101  0.14030485     1.51700
Co143      Co  0.09272190  0.60603808  0.05799581     1.51600
Co144      Co  0.09334687  0.61362359  0.19153247     1.51500
O145        O  0.13206683  0.61414503  0.12452790    -1.39900
C146        C  0.16766959  0.72102550  0.21575088     1.11700
C147        C  0.18039267  0.51320158  0.03403645     1.11800
C148        C  0.18995543  0.68136404  0.02258658     1.11700
C149        C  0.20281838  0.56636296  0.22430085     1.11700
O150        O  0.67153342  0.09426709  0.00601333    -0.78000
O151        O  0.58292785  0.06183249  0.25841485    -0.78000
O152        O  0.72578073  0.05480909  0.17094023    -0.78000
O153        O  0.51987144  0.03786709  0.09653053    -0.77900
O154        O  0.64353725  0.01186814  0.17906856    -0.78000
O155        O  0.59456127  0.02530308  0.05079722    -0.78000
O156        O  0.51973130  0.07812452  0.19723665    -0.78000
O157        O  0.72018354  0.05335584  0.06816846    -0.78000
C158        C  0.70919135  0.05731139  0.02078213     1.11700
C159        C  0.53331138  0.05629670  0.24230345     1.11600
C160        C  0.69497648  0.01119014  0.18708520     1.11800
C161        C  0.54992197  0.00442551  0.06761961     1.11600
O162        O  0.56164567  0.12392938  0.98890121    -0.78000
O163        O  0.68225898  0.12649118  0.23483831    -0.78000
O164        O  0.71154070  0.18881938  0.06572665    -0.78000
O165        O  0.53887789  0.20720717  0.15489946    -0.77900
O166        O  0.58926196  0.17747762  0.22003427    -0.78000
O167        O  0.62300834  0.20507033  0.04677513    -0.78000
O168        O  0.51819770  0.16621805  0.05635133    -0.77900
O169        O  0.71347166  0.18857823  0.17388059    -0.78000
Co170      Co  0.60552136  0.11549433  0.05082816     1.51500
Co171      Co  0.61354556  0.09403123  0.19601167     1.51700
Co172      Co  0.71187865  0.12215222  0.11972839     1.51600
Co173      Co  0.53545228  0.12244318  0.12606978     1.51500
O174        O  0.62658868  0.11829974  0.12391565    -1.39900
C175        C  0.52365869  0.15917971  0.00691185     1.11700
C176        C  0.71129366  0.17354877  0.22113963     1.11800
C177        C  0.67363229  0.21885925  0.04225531     1.11700
C178        C  0.56075156  0.21812134  0.19791731     1.11700
C179        C  0.61534118  0.63095525  0.12827964    -0.00300
C180        C  0.11124983  0.60098815  0.62718935    -0.00300
O181        O  0.40140280  0.29216478  0.47352855    -0.78000
O182        O  0.40344769  0.45034813  0.25647584    -0.78000
O183        O  0.43519096  0.26247356  0.29680964    -0.78000
O184        O  0.40705197  0.50962739  0.43226281    -0.77900
O185        O  0.45695185  0.35936911  0.30617348    -0.78000
O186        O  0.43038717  0.41233475  0.45202141    -0.78000
O187        O  0.44115511  0.46691501  0.33536198    -0.78000
O188        O  0.44714843  0.25706401  0.40487552    -0.78000
C189        C  0.44185246  0.26208440  0.45369981     1.11700
C190        C  0.43960770  0.47735535  0.28521093     1.11600
C191        C  0.46790530  0.30667224  0.28898836     1.11800
C192        C  0.43236121  0.47127692  0.46121729     1.11600
O193        O  0.33710214  0.39292927  0.51037043    -0.78000
O194        O  0.34763361  0.32758428  0.25324821    -0.78000
O195        O  0.33247701  0.22863417  0.41072881    -0.78000
O196        O  0.33275506  0.50029770  0.35338118    -0.77900
O197        O  0.30396498  0.42622261  0.30247623    -0.78000
O198        O  0.29040415  0.31449484  0.43857175    -0.78000
O199        O  0.31122744  0.44636101  0.44198102    -0.77900
O200        O  0.31967222  0.25158172  0.30574392    -0.78000
Co201      Co  0.35869501  0.36349885  0.44226767     1.51500
Co202      Co  0.37918389  0.39138311  0.30548069     1.51700
Co203      Co  0.38279298  0.25661639  0.35550418     1.51600
Co204      Co  0.37995403  0.44243305  0.39101674     1.51500
O205        O  0.36421983  0.34990719  0.36665039    -1.39900
C206        C  0.30575171  0.43416675  0.49069773     1.11700
C207        C  0.31584939  0.28070089  0.26311342     1.11800
C208        C  0.29522425  0.25596304  0.43664663     1.11700
C209        C  0.30016419  0.48128118  0.31927069     1.11700
O210        O  0.52919042  0.66351911  0.65524337    -0.78000
O211        O  0.52909077  0.58273529  0.58531919    -0.78000
O212        O  0.58561677  0.72082239  0.54068344    -0.78000
O213        O  0.57342170  0.50938426  0.69598836    -0.77900
O214        O  0.55242779  0.63928356  0.49453090    -0.78000
O215        O  0.54439845  0.59350540  0.74160491    -0.78000
O216        O  0.56696842  0.49118653  0.58947224    -0.78000
O217        O  0.58108321  0.74569448  0.64641283    -0.78000
C218        C  0.53566049  0.72154350  0.65911797     1.11700
C219        C  0.52576393  0.52527664  0.57920274     1.11600
C220        C  0.55360809  0.69786179  0.50371570     1.11800
C221        C  0.54271734  0.53472075  0.73259504     1.11600
O222        O  0.65134076  0.58144751  0.73015002    -0.78000
O223        O  0.65960829  0.63856457  0.50871236    -0.78000
O224        O  0.69246727  0.71121552  0.66592342    -0.78000
O225        O  0.68484428  0.50595523  0.57488008    -0.77900
O226        O  0.62292432  0.53294759  0.51634249    -0.78000
O227        O  0.62570561  0.69175135  0.72256729    -0.78000
O228        O  0.69771146  0.52156111  0.67804556    -0.77900
O229        O  0.70874148  0.69060758  0.56398978    -0.78000
Co230      Co  0.59101430  0.61674504  0.68610607     1.51500
Co231      Co  0.59520941  0.61393719  0.55178446     1.51700
Co232      Co  0.64241473  0.70902546  0.60493155     1.51600
Co233      Co  0.63191562  0.51492570  0.63350233     1.51500
O234        O  0.63212746  0.61279661  0.61980538    -1.39900
C235        C  0.69199318  0.54662697  0.72151980     1.11700
C236        C  0.70336724  0.66626825  0.52034503     1.11800
C237        C  0.67407580  0.71284682  0.71195103     1.11700
C238        C  0.66920696  0.50662264  0.52809109     1.11700
C239        C  0.60868503  0.10307936  0.61967107    -0.00300
C240        C  0.11551842  0.13042695  0.12250656    -0.00300
C241        C  0.27356579  0.25881062  0.22584683    -0.16300
C242        C  0.23541368  0.23597536  0.20023265     0.07700
C243        C  0.18998500  0.20532465  0.17319212     0.09600
C244        C  0.15338045  0.17529918  0.15083036    -0.17200
C245        C  0.48109605  0.23087156  0.48772735    -0.16300
C246        C  0.51179241  0.20346984  0.51738601     0.07700
C247        C  0.54635794  0.17006474  0.55281031     0.09600
C248        C  0.57492266  0.14064834  0.58301988    -0.17200
C249        C  0.46018375  0.49134955  0.50613811    -0.11100
C250        C  0.48527178  0.50345054  0.54457078    -0.12600
C251        C  0.14864375  0.55881997  0.59620495    -0.16300
C252        C  0.18301167  0.52755312  0.57242020     0.07700
C253        C  0.22552915  0.49299103  0.54500673     0.09600
C254        C  0.26209675  0.46517173  0.52122012    -0.17200
C255        C  0.58350745  0.59170081  0.16471092    -0.16300
C256        C  0.55431856  0.56519358  0.19598784     0.07700
C257        C  0.51728639  0.53699483  0.23196817     0.09600
C258        C  0.48328273  0.51197102  0.25964316    -0.17200
C259        C  0.51495041  0.29726113  0.25700337    -0.11100
C260        C  0.54475779  0.27157751  0.22667434    -0.12600
C261        C  0.23986680  0.55351914  0.26428153    -0.11100
C262        C  0.26573507  0.52423986  0.29454369    -0.12600
C263        C  0.24122147  0.19613376  0.50633748    -0.11100
C264        C  0.26486606  0.22024255  0.47166956    -0.12600
C265        C  0.83633524  0.31634596  0.34445381    -0.16300
C266        C  0.80848329  0.28079673  0.31785335     0.07700
C267        C  0.77380890  0.24100241  0.28662216     0.09600
C268        C  0.74424639  0.20901701  0.25861902    -0.17200
C269        C  0.90339002  0.40203553  0.34575424    -0.16300
C270        C  0.93905030  0.42929341  0.32090331     0.07700
C271        C  0.98304783  0.45926206  0.29272827     0.09600
C272        C  0.01901729  0.48710686  0.26878231    -0.17200
C273        C  0.01788911  0.24104236  0.49178423    -0.16300
C274        C  0.98268706  0.26986060  0.46780747     0.07700
C275        C  0.93962711  0.30096357  0.43957537     0.09600
C276        C  0.90427604  0.32740705  0.41388932    -0.17200
C277        C  0.70590896  0.47790376  0.48892038    -0.16300
C278        C  0.74193590  0.45396162  0.46148633     0.07700
C279        C  0.78673345  0.42528507  0.43222142     0.09600
C280        C  0.82434926  0.39917729  0.40815887    -0.17200
C281        C  0.20378875  0.75039557  0.25496655    -0.16300
C282        C  0.23897145  0.77492656  0.28303120     0.07700
C283        C  0.28215176  0.80424488  0.31382337     0.09600
C284        C  0.31764103  0.83079645  0.34030133    -0.17200
C285        C  0.38906744  0.91350595  0.34453581    -0.16300
C286        C  0.42016882  0.94914254  0.32178980     0.07700
C287        C  0.45876011  0.98950587  0.29572585     0.09600
C288        C  0.49228947  0.02191751  0.27269199    -0.17200
C289        C  0.31971994  0.90247558  0.41302497    -0.16300
C290        C  0.28687642  0.92943937  0.44168910     0.07700
C291        C  0.24694278  0.96030940  0.47465917     0.09600
C292        C  0.21383050  0.98590372  0.50385376    -0.17200
C293        C  0.39629106  0.82671230  0.40319574    -0.16300
C294        C  0.43344810  0.79799885  0.42536094     0.07700
C295        C  0.47851259  0.76634312  0.45155976     0.09600
C296        C  0.51528693  0.73807508  0.47458930    -0.17200
C297        C  0.19708450  0.24322992  0.77397312    -0.16300
C298        C  0.23360717  0.26869233  0.79889349     0.07700
C299        C  0.28002476  0.29927023  0.82236176     0.09600
C300        C  0.31867165  0.32650426  0.84289916    -0.17200
C301        C  0.21676479  0.48478501  0.99544755    -0.16300
C302        C  0.25146153  0.46019032  0.96758831     0.07700
C303        C  0.29351027  0.42989355  0.93717359     0.09600
C304        C  0.32705989  0.40146512  0.91054187    -0.17200
C305        C  0.39468343  0.31607579  0.90338740    -0.16300
C306        C  0.42426655  0.27790519  0.92483890     0.07700
C307        C  0.45947301  0.23333457  0.94974489     0.09600
C308        C  0.48926621  0.19715642  0.97314998    -0.17200
C309        C  0.39712778  0.40035839  0.84129481    -0.16300
C310        C  0.43047450  0.43058709  0.81606948     0.07700
C311        C  0.47094881  0.46558473  0.78728954     0.09600
C312        C  0.50479186  0.49593160  0.76278494    -0.17200
C313        C  0.24599921  0.73000131  0.94692651    -0.11100
C314        C  0.22179749  0.70353425  0.98059172    -0.12600
C315        C  0.22529804  0.03124360  0.78067239    -0.11100
C316        C  0.25083813  0.00634533  0.81440405    -0.12600
C317        C  0.25689371  0.74196993  0.73520703    -0.16300
C318        C  0.22239941  0.71031268  0.71195398     0.07700
C319        C  0.18130816  0.67376046  0.68448650     0.09600
C320        C  0.14777814  0.64210125  0.65997680    -0.17200
C321        C  0.26998804  0.99026614  0.02210367    -0.16300
C322        C  0.23375613  0.02135683  0.04414521     0.07700
C323        C  0.18942718  0.05665080  0.06926214     0.09600
C324        C  0.15325884  0.08777143  0.09142570    -0.17200
C325        C  0.47650005  0.78130329  0.72759156    -0.11100
C326        C  0.49992067  0.75705721  0.69172897    -0.12600
C327        C  0.46367717  0.73387837  0.00411860    -0.16300
C328        C  0.49821738  0.71244067  0.03343343     0.07700
C329        C  0.54025776  0.68656119  0.06600763     0.09600
C330        C  0.57538471  0.66293561  0.09356510    -0.17200
C331        C  0.57011351  0.06659878  0.65327792    -0.16300
C332        C  0.53638239  0.04051050  0.68110347     0.07700
C333        C  0.49591024  0.01217464  0.71456831     0.09600
C334        C  0.46270581  0.98905346  0.74461988    -0.17200
C335        C  0.49983169  0.92113026  0.01428276    -0.11100
C336        C  0.52795028  0.94882894  0.04518747    -0.12600
C337        C  0.98502643  0.23781873  0.70497350    -0.11100
C338        C  0.95808336  0.25798737  0.74001046    -0.12600
C339        C  0.69039166  0.25856396  0.00122853    -0.11100
C340        C  0.71569773  0.27683938  0.96431981    -0.12600
C341        C  0.73914017  0.24981792  0.73769156    -0.16300
C342        C  0.70819530  0.21801506  0.71078395     0.07700
C343        C  0.67269061  0.17948127  0.67922660     0.09600
C344        C  0.64323399  0.14565869  0.65251652    -0.17200
C345        C  0.07373664  0.16384210  0.08851075    -0.16300
C346        C  0.03428170  0.18684024  0.06457669     0.07700
C347        C  0.98606970  0.21197377  0.03736623     0.09600
C348        C  0.94672460  0.23298410  0.01208941    -0.17200
C349        C  0.75212708  0.50946463  0.79998887    -0.11100
C350        C  0.72727538  0.53048183  0.76373498    -0.12600
C351        C  0.77052703  0.50523825  0.02142371    -0.16300
C352        C  0.73543379  0.53511320  0.04493523     0.07700
C353        C  0.69191688  0.56628428  0.07292693     0.09600
C354        C  0.65563130  0.59323401  0.09734824    -0.17200
C355        C  0.96232506  0.48018730  0.74549226    -0.16300
C356        C  0.99688143  0.50458396  0.71725662     0.07700
C357        C  0.03852773  0.53539059  0.68650677     0.09600
C358        C  0.07289365  0.56349729  0.66050513    -0.17200
C359        C  0.98633302  0.43525601  0.01934972    -0.11100
C360        C  0.00880178  0.46125870  0.05470511    -0.12600
C361        C  0.71609832  0.97585067  0.22846392    -0.11100
C362        C  0.74101757  0.96492918  0.26736080    -0.12600
C363        C  0.96825409  0.75219624  0.24166263    -0.11100
C364        C  0.98876560  0.72909365  0.20396453    -0.12600
C365        C  0.75344053  0.76809873  0.24082145    -0.16300
C366        C  0.71718765  0.74237051  0.21610320     0.07700
C367        C  0.67772710  0.70932375  0.18537267     0.09600
C368        C  0.64737201  0.67702275  0.15896809    -0.17200
C369        C  0.97095616  0.01535919  0.24886052    -0.16300
C370        C  0.00672368  0.03901729  0.22144452     0.07700
C371        C  0.04860678  0.06769173  0.18929454     0.09600
C372        C  0.08180335  0.09384438  0.16066671    -0.17200
C373        C  0.74346217  0.67706298  0.48146311    -0.11100
C374        C  0.77348699  0.69957801  0.45000486    -0.12600
C375        C  0.97404658  0.73467034  0.50569206    -0.16300
C376        C  0.00707033  0.70518375  0.53210941     0.07700
C377        C  0.04513269  0.67030418  0.56404656     0.09600
C378        C  0.07628623  0.63997353  0.59177584    -0.17200
C379        C  0.64642611  0.06101704  0.58928001    -0.16300
C380        C  0.67949759  0.03102762  0.56306610     0.07700
C381        C  0.72006701  0.99928038  0.53143538     0.09600
C382        C  0.75539868  0.97527047  0.50371572    -0.17200
C383        C  0.99919368  0.99279137  0.54794507    -0.11100
C384        C  0.97628788  0.97651598  0.50913747    -0.12600
C385        C  0.82604769  0.89947349  0.90518335    -0.16300
C386        C  0.79887769  0.93728956  0.92978644     0.07700
C387        C  0.76641284  0.98154036  0.95832571     0.09600
C388        C  0.73929522  0.01780431  0.98448204    -0.15600
C389        C  0.00586880  0.98459704  0.76736031    -0.16300
C390        C  0.97103074  0.95263771  0.78811197     0.07700
C391        C  0.92933053  0.91780547  0.81374499     0.09600
C392        C  0.89510273  0.88911029  0.83832545    -0.17200
C393        C  0.70912346  0.73920261  0.75218269    -0.16300
C394        C  0.74227600  0.76191392  0.78244715     0.07700
C395        C  0.78306957  0.79026938  0.81507571     0.09600
C396        C  0.81767450  0.81707359  0.84144434    -0.17200
C397        C  0.89257686  0.81350004  0.90532999    -0.16300
C398        C  0.92608898  0.78337635  0.92997200     0.07700
C399        C  0.96771909  0.75006048  0.95785256     0.09600
C400        C  0.00278003  0.72148521  0.98182862    -0.17200
loop_ 
_geom_bond_atom_site_label_1 
_geom_bond_atom_site_label_2 
_geom_bond_distance 
_geom_bond_site_symmetry_2 
_ccdc_geom_bond_type 
C1          C385   1.480       .  S
C1          C392   1.474       .  S
C1          C396   1.481       .  S
C1          C397   1.481       .  S
O2           C10   1.272       .  A
O2          Co22   2.025       .  S
O3           C11   1.272       .  A
O3          Co23   1.884       .  S
O4           C12   1.253       .  A
O4          Co24   2.006       .  S
O5           C13   1.267       .  A
O5          Co25   1.894       .  S
O6           C12   1.232       .  A
O6          Co23   1.973       .  S
O7           C13   1.293       .  A
O7          Co22   2.057       .  S
O8           C11   1.308       .  A
O8          Co25   2.128       .  S
O9           C10   1.264       .  A
O9          Co24   1.994       .  S
C10         C382   1.462       .  S
C11         C365   1.444       .  S
C12         C362   1.414       .  S
C13         C374   1.414       .  S
O14          C27   1.271       .  A
O14         Co22   1.928       .  S
O15          C28   1.288       .  A
O15         Co23   2.057       .  S
O16          C29   1.265       .  A
O16         Co24   1.989       .  S
O17          C30   1.254       .  A
O17         Co25   1.981       .  S
O18          C30   1.247       .  A
O18         Co23   1.942       .  S
O19          C29   1.253       .  A
O19         Co22   1.953       .  S
O20          C27   1.301       .  A
O20         Co25   2.114       .  S
O21          C28   1.276   1_545  A
O21         Co24   1.996   1_545  S
Co22         O26   2.001       .  S
Co23         O26   1.853       .  S
Co24         O26   2.089       .  S
Co25         O26   2.093       .  S
C27         C375   1.467       .  S
C28         C369   1.472   1_565  S
C29         C384   1.410       .  S
C30         C363   1.414       .  S
O31          C39   1.244       .  A
O31         Co51   1.957       .  S
O32          C40   1.245       .  A
O32         Co52   1.950       .  S
O33          C41   1.285       .  A
O33         Co53   2.069       .  S
O34          C42   1.286       .  A
O34         Co54   2.062       .  S
O35          C41   1.260       .  A
O35         Co52   1.984       .  S
O36          C42   1.267       .  A
O36         Co51   1.984       .  S
O37          C40   1.241       .  A
O37         Co54   1.964       .  S
O38          C39   1.237       .  A
O38         Co53   1.958       .  S
C39         C359   1.409   1_556  S
C40         C338   1.408       .  S
C41         C348   1.483   1_556  S
C42         C355   1.467       .  S
O43          C56   1.255       .  A
O43         Co51   1.994       .  S
O44          C57   1.263       .  A
O44         Co52   2.019       .  S
O45          C58   1.271   1_554  A
O45         Co53   1.870   1_554  S
O46          C59   1.277       .  A
O46         Co54   1.894       .  S
O47          C59   1.309       .  A
O47         Co52   2.134       .  S
O48          C58   1.313       .  A
O48         Co51   2.148       .  S
O49          C56   1.250       .  A
O49         Co54   1.955       .  S
O50          C57   1.240       .  A
O50         Co53   1.942       .  S
Co51         O55   2.133       .  S
Co52         O55   2.144       .  S
Co53         O55   1.976       .  S
Co54         O55   1.981       .  S
C56         C349   1.424       .  S
C57         C340   1.426       .  S
C58         C351   1.454   1_556  S
C59         C341   1.459       .  S
O60          C68   1.278   1_554  A
O60         Co80   1.891   1_554  S
O61          C69   1.280       .  A
O61         Co81   1.892       .  S
O62          C70   1.256       .  A
O62         Co82   1.976       .  S
O63          C71   1.255       .  A
O63         Co83   1.973       .  S
O64          C70   1.255       .  A
O64         Co81   1.960       .  S
O65          C71   1.256       .  A
O65         Co80   1.962       .  S
O66          C69   1.315       .  A
O66         Co83   2.153       .  S
O67          C68   1.319       .  A
O67         Co82   2.170       .  S
C68         C321   1.478   1_556  S
C69         C317   1.466       .  S
C70         C316   1.413   1_565  S
C71         C313   1.413       .  S
O72          C85   1.282       .  A
O72         Co80   2.040       .  S
O73          C86   1.286       .  A
O73         Co81   2.053       .  S
O74          C87   1.243       .  A
O74         Co82   1.958       .  S
O75          C88   1.245       .  A
O75         Co83   1.955       .  S
O76          C88   1.245       .  A
O76         Co81   1.994       .  S
O77          C87   1.247       .  A
O77         Co80   2.002       .  S
O78          C85   1.269       .  A
O78         Co83   1.982       .  S
O79          C86   1.270       .  A
O79         Co82   1.987       .  S
Co80         O84   1.973       .  S
Co81         O84   1.965       .  S
Co82         O84   2.099       .  S
Co83         O84   2.103       .  S
C85         C327   1.452   1_556  S
C86         C334   1.465       .  S
C87         C335   1.423   1_556  S
C88         C325   1.420       .  S
C89         C300   1.481       .  S
C89         C304   1.486       .  S
C89         C305   1.487       .  S
C89         C309   1.497       .  S
C90         C284   1.504       .  S
C90         C285   1.497       .  S
C90         C289   1.495       .  S
C90         C293   1.504       .  S
C91         C265   1.490       .  S
C91         C269   1.496       .  S
C91         C276   1.488       .  S
C91         C280   1.505       .  S
O92         C100   1.244       .  A
O92        Co112   1.982       .  S
O93         C101   1.241       .  A
O93        Co113   1.966       .  S
O94         C102   1.267       .  A
O94        Co114   1.985       .  S
O95         C103   1.260       .  A
O95        Co115   1.961       .  S
O96         C102   1.282       .  A
O96        Co113   2.053       .  S
O97         C103   1.281       .  A
O97        Co112   2.047       .  S
O98         C101   1.240       .  A
O98        Co115   1.937       .  S
O99         C100   1.246       .  A
O99        Co114   1.954       .  S
C100        C315   1.415       .  S
C101        C263   1.395       .  S
C102        C292   1.463   1_545  S
C103        C297   1.446       .  S
O104        C117   1.247       .  A
O104       Co112   1.948       .  S
O105        C118   1.244       .  A
O105       Co113   1.940       .  S
O106        C119   1.309       .  A
O106       Co114   2.131       .  S
O107        C120   1.311       .  A
O107       Co115   2.142       .  S
O108        C120   1.273       .  A
O108       Co113   1.880       .  S
O109        C119   1.275       .  A
O109       Co112   1.873       .  S
O110        C117   1.255       .  A
O110       Co115   1.980       .  S
O111        C118   1.258   1_565  A
O111       Co114   1.994   1_565  S
Co112       O116   1.969       .  S
Co113       O116   1.961       .  S
Co114       O116   2.114       .  S
Co115       O116   2.114       .  S
C117        C337   1.405   1_455  S
C118        C383   1.408   1_445  S
C119        C389   1.443   1_545  S
C120        C273   1.455       .  S
O121        C129   1.312       .  A
O121       Co141   2.141       .  S
O122        C130   1.319       .  A
O122       Co142   2.169       .  S
O123        C131   1.256       .  A
O123       Co143   1.963       .  S
O124        C132   1.246       .  A
O124       Co144   1.946       .  S
O125        C131   1.251       .  A
O125       Co142   1.965       .  S
O126        C132   1.255       .  A
O126       Co141   1.984       .  S
O127        C130   1.274       .  A
O127       Co144   1.873       .  S
O128        C129   1.278       .  A
O128       Co143   1.877       .  S
C129        C400   1.449   1_554  S
C130        C272   1.463       .  S
C131        C360   1.410       .  S
C132        C364   1.412   1_455  S
O133        C146   1.266       .  A
O133       Co141   1.985       .  S
O134        C147   1.268       .  A
O134       Co142   1.981       .  S
O135        C148   1.246       .  A
O135       Co143   1.994       .  S
O136        C149   1.239       .  A
O136       Co144   1.973       .  S
O137        C149   1.237       .  A
O137       Co142   1.933       .  S
O138        C148   1.242       .  A
O138       Co141   1.943       .  S
O139        C146   1.285       .  A
O139       Co144   2.063       .  S
O140        C147   1.282       .  A
O140       Co143   2.044       .  S
Co141       O145   2.109       .  S
Co142       O145   2.100       .  S
Co143       O145   1.966       .  S
Co144       O145   1.966       .  S
C146        C281   1.470       .  S
C147        C301   1.454   1_554  S
C148        C314   1.415   1_554  S
C149        C261   1.392       .  S
O150        C158   1.262       .  A
O150       Co170   2.014       .  S
O151        C159   1.268       .  A
O151       Co171   1.908       .  S
O152        C160   1.267       .  A
O152       Co172   1.993       .  S
O153        C161   1.257       .  A
O153       Co173   1.992       .  S
O154        C160   1.254       .  A
O154       Co171   1.944       .  S
O155        C161   1.244       .  A
O155       Co170   1.947       .  S
O156        C159   1.299       .  A
O156       Co173   2.111       .  S
O157        C158   1.255       .  A
O157       Co172   1.984       .  S
C158        C388   1.449   1_554  S
C159        C288   1.465       .  S
C160        C361   1.409   1_545  S
C161        C336   1.420   1_545  S
O162        C175   1.269   1_556  A
O162       Co170   1.924   1_556  S
O163        C176   1.279       .  A
O163       Co171   2.050       .  S
O164        C177   1.271       .  A
O164       Co172   2.005       .  S
O165        C178   1.248       .  A
O165       Co173   1.954       .  S
O166        C178   1.249       .  A
O166       Co171   1.971       .  S
O167        C177   1.259       .  A
O167       Co170   1.966       .  S
O168        C175   1.291       .  A
O168       Co173   2.079       .  S
O169        C176   1.266       .  A
O169       Co172   1.983       .  S
Co170       O174   1.953       .  S
Co171       O174   1.963       .  S
Co172       O174   2.056       .  S
Co173       O174   2.194       .  S
C175        C308   1.454   1_554  S
C176        C268   1.457       .  S
C177        C339   1.424       .  S
C178        C260   1.410       .  S
C179        C255   1.482       .  S
C179        C330   1.484       .  S
C179        C354   1.488       .  S
C179        C368   1.475       .  S
C180        C251   1.499       .  S
C180        C320   1.499       .  S
C180        C358   1.501       .  S
C180        C378   1.500       .  S
O181        C189   1.271       .  A
O181       Co201   2.013       .  S
O182        C190   1.277       .  A
O182       Co202   1.889       .  S
O183        C191   1.249       .  A
O183       Co203   1.977       .  S
O184        C192   1.270       .  A
O184       Co204   1.896       .  S
O185        C191   1.235       .  A
O185       Co202   1.990       .  S
O186        C192   1.281       .  A
O186       Co201   2.031       .  S
O187        C190   1.317       .  A
O187       Co204   2.128       .  S
O188        C189   1.271       .  A
O188       Co203   2.003       .  S
C189        C245   1.455       .  S
C190        C258   1.450       .  S
C191        C259   1.414       .  S
C192        C249   1.402       .  S
O193        C206   1.269       .  A
O193       Co201   1.933       .  S
O194        C207   1.290       .  A
O194       Co202   2.054       .  S
O195        C208   1.258       .  A
O195       Co203   1.970       .  S
O196        C209   1.244       .  A
O196       Co204   1.945       .  S
O197        C209   1.254       .  A
O197       Co202   1.957       .  S
O198        C208   1.258       .  A
O198       Co201   1.951       .  S
O199        C206   1.294       .  A
O199       Co204   2.115       .  S
O200        C207   1.273       .  A
O200       Co203   1.989       .  S
Co201       O205   1.975       .  S
Co202       O205   1.855       .  S
Co203       O205   2.061       .  S
Co204       O205   2.105       .  S
C206        C254   1.467       .  S
C207        C241   1.472       .  S
C208        C264   1.397       .  S
C209        C262   1.395       .  S
O210        C218   1.254       .  A
O210       Co230   1.963       .  S
O211        C219   1.240       .  A
O211       Co231   1.934       .  S
O212        C220   1.317       .  A
O212       Co232   2.164       .  S
O213        C221   1.312       .  A
O213       Co233   2.146       .  S
O214        C220   1.273       .  A
O214       Co231   1.883       .  S
O215        C221   1.277       .  A
O215       Co230   1.892       .  S
O216        C219   1.259       .  A
O216       Co233   1.994       .  S
O217        C218   1.255       .  A
O217       Co232   1.980       .  S
C218        C326   1.418       .  S
C219        C250   1.398       .  S
C220        C296   1.471       .  S
C221        C312   1.465       .  S
O222        C235   1.247       .  A
O222       Co230   1.994       .  S
O223        C236   1.243       .  A
O223       Co231   1.983       .  S
O224        C237   1.269       .  A
O224       Co232   1.981       .  S
O225        C238   1.265       .  A
O225       Co233   1.986       .  S
O226        C238   1.284       .  A
O226       Co231   2.061       .  S
O227        C237   1.279       .  A
O227       Co230   2.031       .  S
O228        C235   1.247       .  A
O228       Co233   1.959       .  S
O229        C236   1.243       .  A
O229       Co232   1.952       .  S
Co230       O234   1.979       .  S
Co231       O234   1.967       .  S
Co232       O234   2.113       .  S
Co233       O234   2.127       .  S
C235        C350   1.425       .  S
C236        C373   1.414       .  S
C237        C393   1.447       .  S
C238        C277   1.472       .  S
C239        C248   1.487       .  S
C239        C331   1.497       .  S
C239        C344   1.491       .  S
C239        C379   1.494       .  S
C240        C244   1.507       .  S
C240        C324   1.511       .  S
C240        C345   1.516       .  S
C240        C372   1.504       .  S
C241        C242   1.229       .  T
C242        C243   1.449       .  S
C243        C244   1.230       .  T
C245        C246   1.217       .  T
C246        C247   1.431       .  S
C247        C248   1.218       .  T
C249        C250   1.187       .  T
C251        C252   1.224       .  T
C252        C253   1.443       .  S
C253        C254   1.223       .  T
C255        C256   1.216       .  T
C256        C257   1.427       .  S
C257        C258   1.215       .  T
C259        C260   1.192       .  T
C261        C262   1.182       .  T
C263        C264   1.184       .  T
C265        C266   1.220       .  T
C266        C267   1.434       .  S
C267        C268   1.219       .  T
C269        C270   1.224       .  T
C270        C271   1.440       .  S
C271        C272   1.223   1_655  T
C273        C274   1.218   1_455  T
C274        C275   1.432       .  S
C275        C276   1.219       .  T
C277        C278   1.228       .  T
C278        C279   1.448       .  S
C279        C280   1.228       .  T
C281        C282   1.228       .  T
C282        C283   1.447       .  S
C283        C284   1.229       .  T
C285        C286   1.224       .  T
C286        C287   1.441       .  S
C287        C288   1.223   1_565  T
C289        C290   1.223       .  T
C290        C291   1.439       .  S
C291        C292   1.222       .  T
C293        C294   1.228       .  T
C294        C295   1.447       .  S
C295        C296   1.227       .  T
C297        C298   1.214       .  T
C298        C299   1.426       .  S
C299        C300   1.216       .  T
C301        C302   1.218       .  T
C302        C303   1.431       .  S
C303        C304   1.218       .  T
C305        C306   1.219       .  T
C306        C307   1.431       .  S
C307        C308   1.218       .  T
C309        C310   1.224       .  T
C310        C311   1.441       .  S
C311        C312   1.223       .  T
C313        C314   1.195       .  T
C315        C316   1.194       .  T
C317        C318   1.224       .  T
C318        C319   1.442       .  S
C319        C320   1.225       .  T
C321        C322   1.232   1_565  T
C322        C323   1.455       .  S
C323        C324   1.232       .  T
C325        C326   1.197       .  T
C327        C328   1.215       .  T
C328        C329   1.429       .  S
C329        C330   1.216       .  T
C331        C332   1.223       .  T
C332        C333   1.441       .  S
C333        C334   1.223   1_545  T
C335        C336   1.198       .  T
C337        C338   1.190       .  T
C339        C340   1.201   1_554  T
C341        C342   1.220       .  T
C342        C343   1.435       .  S
C343        C344   1.221       .  T
C345        C346   1.236       .  T
C346        C347   1.459   1_455  S
C347        C348   1.235       .  T
C349        C350   1.201       .  T
C351        C352   1.217       .  T
C352        C353   1.432       .  S
C353        C354   1.218       .  T
C355        C356   1.227       .  T
C356        C357   1.443   1_655  S
C357        C358   1.227       .  T
C359        C360   1.193   1_655  T
C361        C362   1.194       .  T
C363        C364   1.194       .  T
C365        C366   1.209       .  T
C366        C367   1.420       .  S
C367        C368   1.210       .  T
C369        C370   1.228   1_655  T
C370        C371   1.447       .  S
C371        C372   1.228       .  T
C373        C374   1.193       .  T
C375        C376   1.224   1_655  T
C376        C377   1.443       .  S
C377        C378   1.225       .  T
C379        C380   1.222       .  T
C380        C381   1.438   1_545  S
C381        C382   1.221       .  T
C383        C384   1.192       .  T
C385        C386   1.214       .  T
C386        C387   1.426       .  S
C387        C388   1.213   1_565  T
C389        C390   1.211   1_455  T
C390        C391   1.419       .  S
C391        C392   1.212       .  T
C393        C394   1.214       .  T
C394        C395   1.424       .  S
C395        C396   1.215       .  T
C397        C398   1.214       .  T
C398        C399   1.426       .  S
C399        C400   1.213   1_655  T
