geometry optimzed in LAMMPS
_audit_creation_date              2020-11-30 
_audit_creation_method            'lammps2cif' 
_symmetry_space_group_name_H-M    'P1' 
_symmetry_Int_Tables_number       1 
_symmetry_cell_setting            triclinic 
loop_ 
_symmetry_equiv_pos_as_xyz 
  x,y,z 
_cell_length_a                    27.87994309 
_cell_length_b                    27.73226644844238 
_cell_length_c                    27.979222251766018 
_cell_angle_alpha                 90.85038355558753 
_cell_angle_beta                  89.76293623804277 
_cell_angle_gamma                 89.99858623423225 
loop_ 
_atom_site_label 
_atom_site_type_symbol 
_atom_site_fract_x 
_atom_site_fract_y 
_atom_site_fract_z 
_atom_site_charge 
C1          C  0.83858586  0.83887647  0.84011423     0.85500
C2          C  0.87020327  0.81302619  0.87630485    -0.54700
C3          C  0.90179978  0.84269431  0.89918128     0.08500
C4          C  0.89940557  0.89522953  0.88462848     0.19400
C5          C  0.81499307  0.88018544  0.86941113    -0.55400
C6          C  0.84731325  0.90895892  0.89242419     0.08600
C7          C  0.87396537  0.86466857  0.80676677    -0.55000
C8          C  0.90532786  0.89410497  0.83054235     0.09100
H9          H  0.86743864  0.77473168  0.88372871     0.13600
H10         H  0.92516505  0.91909924  0.90387816    -0.00600
H11         H  0.77693080  0.88651711  0.87361727     0.13900
H12         H  0.87355203  0.86091072  0.76804088     0.13700
C13         C  0.97521188  0.97500629  0.47657928     0.41500
N14         N  0.95146317  0.92054522  0.42395165     0.00400
C15         C  0.74132486  0.91894838  0.28168684    -0.07500
H16         H  0.70998322  0.89868816  0.46050982     0.05900
C17         C  0.79997007  0.73577183  0.45548753    -0.07800
Co18       Co  0.86094630  0.94823638  0.36996801     0.74200
N19         N  0.77499014  0.91004330  0.42041642    -0.27000
Co20       Co  0.77508116  0.85568690  0.36881865     0.74100
C21         C  0.75360430  0.75008598  0.47653055     0.41600
N22         N  0.91775536  0.77630706  0.42326563     0.00000
N23         N  0.77519958  0.80119942  0.42198332     0.00100
N24         N  0.79484793  0.97963829  0.28518157    -0.47900
H25         H  0.90847319  0.02161359  0.46086039     0.05900
N26         N  0.80799254  0.94432376  0.42170761     0.00400
N27         N  0.77954466  0.80138975  0.31690649     0.00100
C28         C  0.76386991  0.75114873  0.26066731     0.41700
N29         N  0.95007678  0.81118893  0.42369717    -0.26500
C30         C  0.91964060  0.97310011  0.27925034    -0.07400
N31         N  0.98655348  0.93231324  0.45455662    -0.47600
N32         N  0.74794786  0.79160292  0.28297283    -0.47800
C33         C  0.96337791  0.95468146  0.25695935     0.41500
N34         N  0.80553288  0.94566288  0.31686137     0.00400
N35         N  0.95490579  0.80668720  0.32085202    -0.26500
N36         N  0.91698713  0.95322495  0.42302191    -0.27000
N37         N  0.92223916  0.77219221  0.31897741     0.00000
H38         H  0.02319353  0.81558031  0.28514760     0.05900
H39         H  0.82960921  0.70445630  0.27787755     0.05900
N40         N  0.77402025  0.91000879  0.31612652    -0.27000
N41         N  0.81026854  0.76915893  0.42224476    -0.26600
N42         N  0.94882601  0.91396266  0.31911846     0.00400
C43         C  0.75906359  0.96337073  0.47732891     0.41800
C44         C  0.98361073  0.80114948  0.45567274    -0.07900
N45         N  0.81448215  0.76932884  0.31829040    -0.26600
H46         H  0.82104820  0.70389426  0.46234478     0.05900
N47         N  0.79947279  0.97729994  0.45507006    -0.47900
H48         H  0.01661981  0.82105002  0.46079579     0.05900
C49         C  0.97605872  0.74987884  0.26665638     0.41600
C50         C  0.92855934  0.98865323  0.45518256    -0.07400
Co51       Co  0.95183823  0.86327125  0.37218683     0.73800
N52         N  0.92814646  0.74145281  0.45299284    -0.47600
C53         C  0.75520900  0.96520421  0.26048450     0.41900
N54         N  0.97991996  0.91850945  0.28380219    -0.47600
Co55       Co  0.86624092  0.77120884  0.37070329     0.73900
C56         C  0.80766571  0.73612609  0.28408022    -0.07900
C57         C  0.74238928  0.91914013  0.45437103    -0.07500
N58         N  0.91369271  0.94581042  0.31767928    -0.27000
N59         N  0.74062771  0.79097508  0.45352108    -0.47800
H60         H  0.70971835  0.89745439  0.27456690     0.05900
C61         C  0.99030038  0.79544310  0.28964167    -0.07900
Cl62       Cl  0.86343073  0.85970711  0.37066846    -0.50900
C63         C  0.96911904  0.75477134  0.47450819     0.41600
H64         H  0.89709609  0.00299622  0.26924740     0.05900
N65         N  0.93376655  0.73739721  0.28747668    -0.47600
C66         C  0.77198753  0.49452001  0.94947909     0.41500
N67         N  0.78604272  0.42642654  0.91583884     0.00400
C68         C  0.99146735  0.29178128  0.92536743    -0.07500
H69         H  0.02930611  0.46747803  0.90217160     0.05900
C70         C  0.92498735  0.44723410  0.73793048    -0.07800
Co71       Co  0.87437983  0.38024743  0.95311003     0.74200
N72         N  0.96154142  0.43061770  0.91294975    -0.27000
Co73       Co  0.95858621  0.37370184  0.86052502     0.74100
C74         C  0.96983992  0.47058273  0.75108594     0.41600
N75         N  0.80890485  0.41343617  0.77572757     0.00000
N76         N  0.95153994  0.42113061  0.80531864     0.00100
N77         N  0.93681630  0.29766868  0.98555913    -0.47900
H78         H  0.83796573  0.48774930  0.99859264     0.05900
N79         N  0.92940022  0.43333760  0.94775338     0.00400
N80         N  0.95887871  0.31680547  0.80776755     0.00100
C81         C  0.98101890  0.26140584  0.75591566     0.41700
N82         N  0.77590783  0.41382026  0.80969032    -0.26500
C83         C  0.80948098  0.29825019  0.99980460    -0.07400
N84         N  0.75592971  0.46296888  0.91624403    -0.47600
N85         N  0.99517371  0.28765453  0.79502966    -0.47800
C86         C  0.76471363  0.27227841  0.98771061     0.41500
N87         N  0.92780463  0.32849851  0.95146103     0.00400
N88         N  0.78489976  0.30933422  0.82295488    -0.26500
N89         N  0.82094643  0.43173589  0.94731117    -0.27000
N90         N  0.81641573  0.30801565  0.78766928     0.00000
H91         H  0.72826076  0.26169660  0.84428477     0.05900
H92         H  0.91082503  0.26961025  0.71413314     0.05900
N93         N  0.95953367  0.32605608  0.91619960    -0.27000
N94         N  0.91679161  0.41678729  0.77353495    -0.26600
N95         N  0.78551999  0.32091044  0.93005828     0.00400
C96         C  0.98314509  0.48730702  0.96825412     0.41800
C97         C  0.74007515  0.44366229  0.79594115    -0.07900
N98         N  0.92243923  0.31275927  0.77798366    -0.26600
H99         H  0.90443192  0.44924008  0.70533354     0.05900
N100        N  0.94123327  0.46596280  0.98129179    -0.47900
H101        H  0.70710988  0.45004348  0.81553729     0.05900
C102        C  0.77591769  0.24305181  0.77878380     0.41600
C103        C  0.81508964  0.47383573  0.97048191    -0.07400
Co104      Co  0.78215136  0.36745471  0.86988530     0.73800
N105        N  0.79769017  0.44195558  0.73933144    -0.47600
C106        C  0.97617196  0.27328146  0.97124681     0.41900
N107        N  0.75240220  0.28898694  0.94387718    -0.47600
Co108      Co  0.86587535  0.36288394  0.77823538     0.73900
C109        C  0.93264287  0.27832328  0.74495349    -0.07900
C110        C  0.99653486  0.46344375  0.92255433    -0.07500
N111        N  0.81969621  0.32693242  0.96214263    -0.27000
N112        N  0.98424692  0.45272453  0.79301784    -0.47800
H113        H  0.02278372  0.28331043  0.90388490     0.05900
C114        C  0.75784990  0.26968021  0.82059609    -0.07900
Cl115      Cl  0.87033206  0.37117256  0.86551221    -0.50900
C116        C  0.75464453  0.46299172  0.74912940     0.41600
H117        H  0.82988146  0.29692580  0.03253467     0.05900
N118        N  0.81200825  0.26923198  0.76018966    -0.47600
C119        C  0.48321414  0.98879002  0.97301002     0.41500
N120        N  0.42876890  0.96759231  0.92053623     0.00400
C121        C  0.28580592  0.75611227  0.93171922    -0.07500
H122        H  0.47080608  0.73264735  0.90148370     0.05900
C123        C  0.45373860  0.80349773  0.74010830    -0.07800
Co124      Co  0.37128392  0.88007935  0.95230170     0.74200
N125        N  0.42347598  0.79253501  0.91632750    -0.27000
Co126      Co  0.37013742  0.78959853  0.86456657     0.74100
C127        C  0.47145566  0.75565986  0.75380479     0.41600
N128        N  0.42996368  0.92539182  0.77932894     0.00000
N129        N  0.42126261  0.78404766  0.80766911     0.00100
N130        N  0.28776946  0.81265819  0.99014492    -0.47900
H131        H  0.46332606  0.92453374  0.02041021     0.05900
N132        N  0.42312614  0.82652221  0.95006449     0.00400
N133        N  0.31687152  0.79461290  0.81408817     0.00100
C134        C  0.25199918  0.78443288  0.77562346     0.41700
N135        N  0.43198795  0.95964565  0.81262959    -0.26500
C136        C  0.28085634  0.94377102  0.97314164    -0.07400
N137        N  0.46218708  0.00085369  0.93089152    -0.47600
N138        N  0.27825562  0.76739806  0.81186953    -0.47800
C139        C  0.26042483  0.98692784  0.95230138     0.41500
N140        N  0.31789076  0.82398343  0.95442993     0.00400
N141        N  0.32735302  0.97074277  0.80594085    -0.26500
N142        N  0.42554097  0.93438951  0.95378361    -0.27000
N143        N  0.32470004  0.93553772  0.77377739     0.00000
H144        H  0.29336847  0.04106056  0.81002015     0.05900
H145        H  0.26929099  0.84653431  0.72451500     0.05900
N146        N  0.31816716  0.79052902  0.92035691    -0.27000
N147        N  0.42264015  0.81774311  0.77487768    -0.26600
N148        N  0.32372973  0.96859403  0.91387928     0.00400
C149        C  0.48516003  0.78464412  0.96494741     0.41800
C150        C  0.47227833  0.98487596  0.80669405    -0.07900
N151        N  0.31788420  0.82798918  0.78087099    -0.26600
H152        H  0.46012180  0.82238508  0.70715189     0.05900
N153        N  0.45907697  0.82268492  0.98021677    -0.47900
H154        H  0.48308941  0.01592958  0.82784956     0.05900
C155        C  0.27434871  0.98958445  0.74721621     0.41600
C156        C  0.45857406  0.94448210  0.98784169    -0.07400
Co157      Co  0.37811983  0.96764908  0.86331371     0.73800
N158        N  0.46701139  0.92601952  0.74994679    -0.47600
C159        C  0.26525665  0.77028156  0.97827304     0.41900
N160        N  0.28917918  0.00105896  0.91658552    -0.47600
Co161      Co  0.37377430  0.87669745  0.77637247     0.73900
C162        C  0.27814322  0.82444885  0.75477853    -0.07900
C163        C  0.46157932  0.76416818  0.92283539    -0.07500
N164        N  0.32011388  0.93491118  0.94688370    -0.27000
N165        N  0.44877902  0.74605571  0.79588342    -0.47800
H166        H  0.28017591  0.72292993  0.91174189     0.05900
C167        C  0.29742468  0.00651852  0.79199528    -0.07900
Cl168      Cl  0.37329007  0.87852036  0.86421558    -0.50900
C169        C  0.49550984  0.96214227  0.76536734     0.41600
H170        H  0.26877200  0.92320307  0.00345158     0.05900
N171        N  0.29411529  0.94541432  0.73845396    -0.47600
C172        C  0.39654531  0.32428979  0.91233083     0.85500
C173        C  0.43260516  0.35482103  0.88448998    -0.54700
C174        C  0.41195582  0.38568393  0.85311084     0.08500
C175        C  0.35689009  0.38303661  0.85236365     0.19400
C176        C  0.36209841  0.35997303  0.93554649    -0.55400
C177        C  0.34230657  0.39136490  0.90462540     0.08600
C178        C  0.36702662  0.29869443  0.87391809    -0.55000
C179        C  0.34658467  0.32948778  0.84251260     0.09100
H180        H  0.47107461  0.35255102  0.88994305     0.13600
H181        H  0.33947124  0.40773230  0.82683105    -0.00600
H182        H  0.35536210  0.36159758  0.97383777     0.13900
H183        H  0.36174456  0.26015569  0.87082813     0.13700
C184        C  0.40598735  0.82973985  0.38634586     0.85500
C185        C  0.38228572  0.86645526  0.42072991    -0.54700
C186        C  0.35427048  0.89932834  0.39815768     0.08500
C187        C  0.35227049  0.89315324  0.34405657     0.19400
C188        C  0.36369009  0.80770626  0.35853849    -0.55400
C189        C  0.33593039  0.84123097  0.33693256     0.08600
C190        C  0.43264720  0.85988898  0.34923472    -0.55000
C191        C  0.40432563  0.89300875  0.32762852     0.09100
H192        H  0.38521137  0.86494186  0.45939637     0.13600
H193        H  0.32920410  0.91988770  0.32585462    -0.00600
H194        H  0.35580954  0.76972432  0.35432677     0.13900
H195        H  0.47050517  0.85561523  0.34085759     0.13700
C196        C  0.91605414  0.39218647  0.32783419     0.85500
C197        C  0.87571714  0.42694321  0.34290480    -0.54700
C198        C  0.84258790  0.40753787  0.37317967     0.08500
C199        C  0.85277530  0.35451023  0.38484359     0.19400
C200        C  0.93709843  0.37530868  0.37533011    -0.55400
C201        C  0.90371872  0.35495575  0.40478409     0.08600
C202        C  0.89115943  0.34802112  0.30694610    -0.55000
C203        C  0.85825004  0.32851169  0.33658167     0.09100
H204        H  0.87441167  0.46397822  0.33101244     0.13600
H205        H  0.82632973  0.33746412  0.40901243    -0.00600
H206        H  0.97479875  0.37598904  0.38426333     0.13900
H207        H  0.89772487  0.33428884  0.27089030     0.13700
C208        C  0.01157677  0.22810635  0.72511987     0.41500
N209        N  0.06168013  0.20618229  0.66864267     0.00400
C210        C  0.05548209  0.99077239  0.53031396    -0.07500
H211        H  0.10011181  0.97014546  0.70920119     0.05900
C212        C  0.25145298  0.06507178  0.69167444    -0.07800
Co213      Co  0.03195634  0.11335644  0.61831296     0.74200
N214        N  0.07878102  0.03065897  0.66715266    -0.27000
Co215      Co  0.12726789  0.03118711  0.61142539     0.74100
C216        C  0.24244828  0.01750663  0.71281446     0.41600
N217        N  0.20424610  0.18036383  0.65934249     0.00000
N218        N  0.18671283  0.03478837  0.66047361     0.00100
N219        N  0.99531712  0.04459192  0.53605017    -0.47900
H220        H  0.96560978  0.16020694  0.71158877     0.05900
N221        N  0.04283634  0.06159966  0.67032182     0.00400
N222        N  0.17611226  0.03727691  0.55593085     0.00100
C223        C  0.22156301  0.02155933  0.49613383     0.41700
N224        N  0.16879502  0.21187923  0.66070227    -0.26500
C225        C  0.98791139  0.17750233  0.54023151    -0.07400
N226        N  0.05121243  0.24146495  0.70006748    -0.47600
N227        N  0.18423326  0.00488168  0.52185424    -0.47800
C228        C  0.00006262  0.22449300  0.52086913     0.41500
N229        N  0.03144693  0.05670869  0.56533568     0.00400
N230        N  0.16623504  0.21255782  0.55664352    -0.26500
N231        N  0.03057764  0.17024283  0.67030893    -0.27000
N232        N  0.20209518  0.18138343  0.55514603     0.00000
H233        H  0.15347930  0.27850938  0.51784507     0.05900
H234        H  0.26710754  0.08964917  0.50969380     0.05900
N235        N  0.06741404  0.02557397  0.56291809    -0.27000
N236        N  0.21591049  0.07230445  0.65958830    -0.26600
N237        N  0.05771689  0.20148881  0.56459550     0.00400
C238        C  0.03366247  0.01519658  0.72992593     0.41800
C239        C  0.17802702  0.24562554  0.69391563    -0.07900
N240        N  0.20687283  0.07346122  0.55493064    -0.26600
H241        H  0.28195336  0.08858391  0.69710964     0.05900
N242        N  0.01460302  0.05326966  0.70730039    -0.47900
H243        H  0.15641222  0.27729127  0.70125010     0.05900
C244        C  0.22133711  0.23351395  0.50048614     0.41600
C245        C  0.99743078  0.18117591  0.70421281    -0.07400
Co246      Co  0.11349695  0.20843617  0.61242954     0.73800
N247        N  0.23851118  0.19105780  0.68988105    -0.47600
C248        C  0.00725086  0.00315075  0.51196358     0.41900
N249        N  0.04354288  0.23689317  0.53736793    -0.47600
Co250      Co  0.20776984  0.12687773  0.60735662     0.73900
C251        C  0.23669176  0.06702166  0.51797038    -0.07900
C252        C  0.07623328  0.00021926  0.70344652    -0.07500
N253        N  0.02568409  0.16643898  0.56739459    -0.27000
N254        N  0.20177002  0.00109861  0.69087291    -0.47800
H255        H  0.07682913  0.95915947  0.52200892     0.05900
C256        C  0.17500314  0.24662174  0.52326078    -0.07900
Cl257      Cl  0.12007074  0.11996882  0.61222108    -0.50900
C258        C  0.22433766  0.23157184  0.71293321     0.41600
H259        H  0.95431863  0.15803533  0.53911852     0.05900
N260        N  0.23540874  0.19276078  0.52283871    -0.47600
C261        C  0.01845222  0.74497756  0.03002230     0.41500
N262        N  0.06402048  0.68364042  0.03755372     0.00400
C263        C  0.07345742  0.52327416  0.22011732    -0.07500
H264        H  0.07565286  0.70373622  0.27901139     0.05900
C265        C  0.23013773  0.72029659  0.17462737    -0.07800
Co266      Co  0.03262600  0.62214548  0.11864683     0.74200
N267        N  0.06638723  0.66883288  0.20993048    -0.27000
Co268      Co  0.12408648  0.61975879  0.20228557     0.74100
C269        C  0.20952641  0.74141725  0.21806576     0.41600
N270        N  0.20730850  0.68576034  0.05985353     0.00000
N271        N  0.17298987  0.67576084  0.20196195     0.00100
N272        N  0.01336442  0.52585415  0.16605950    -0.47900
H273        H  0.97115895  0.72251613  0.09382795     0.05900
N274        N  0.03098150  0.66929649  0.17880630     0.00400
N275        N  0.18116585  0.56970055  0.19775986     0.00100
C276        C  0.23344598  0.51465989  0.21732331     0.41700
N277        N  0.17284232  0.68586702  0.02752722    -0.26500
C278        C  0.99747847  0.54164353  0.04682312    -0.07400
N279        N  0.05700477  0.72210200  0.01125291    -0.47600
N280        N  0.19120877  0.53580296  0.22966639    -0.47800
C281        C  0.01103047  0.52314094  0.99923043     0.41500
N282        N  0.04028390  0.56490773  0.16462111     0.00400
N283        N  0.17140583  0.58132106  0.02336733    -0.26500
N284        N  0.03182855  0.67955542  0.07211031    -0.27000
N285        N  0.20630251  0.58018382  0.05529943     0.00000
H286        H  0.15893946  0.54323220  0.95705499     0.05900
H287        H  0.28224392  0.53633317  0.15400548     0.05900
N288        N  0.07527221  0.56436637  0.19623698    -0.27000
N289        N  0.20517885  0.67977026  0.16744586    -0.26600
N290        N  0.06265894  0.57755197  0.02390315     0.00400
C291        C  0.00694043  0.71745994  0.23591122     0.41800
C292        C  0.18469553  0.71874171  0.99402684     0.00100
N293        N  0.21431592  0.57347462  0.16419275    -0.26600
H294        H  0.25910006  0.73306094  0.15232346     0.05900
N295        N  0.99450063  0.69713763  0.19330624    -0.47900
H296        H  0.16524316  0.72436293  0.96119601     0.05900
C297        C  0.22550509  0.52728845  0.00273324     0.41600
C298        C  0.00158056  0.71674371  0.07032218    -0.07400
Co299      Co  0.11747086  0.63214352  0.02723339     0.73800
N300        N  0.24237112  0.71711835  0.04967347    -0.47600
C301        C  0.03268807  0.49768126  0.19983140     0.41900
N302        N  0.05190310  0.54753291  0.98748523    -0.47600
Co303      Co  0.20930865  0.62968465  0.11181479     0.73900
C304        C  0.24912039  0.54063743  0.17387970    -0.07900
C305        C  0.05481399  0.69867154  0.24680338    -0.07500
N306        N  0.03099722  0.57476627  0.05896508    -0.27000
N307        N  0.17482148  0.71159523  0.23340701    -0.47800
H308        H  0.09720003  0.51327249  0.24876732     0.05900
C309        C  0.18018365  0.54870581  0.98893045    -0.07900
Cl310      Cl  0.12097600  0.62595897  0.11487740    -0.50900
C311        C  0.23064060  0.74086349  0.00897744     0.41600
H312        H  0.96599991  0.53317791  0.06778926     0.05900
N313        N  0.23974730  0.54844634  0.04396498    -0.47600
C314        C  0.72601746  0.99633128  0.22713974     0.41500
N315        N  0.67521850  0.05139062  0.20479475     0.00400
C316        C  0.54365812  0.06429119  0.99011592    -0.07500
H317        H  0.72865845  0.10140230  0.97530177     0.05900
C318        C  0.71555717  0.24819384  0.06797108    -0.07800
Co319      Co  0.62733216  0.02945974  0.10984086     0.74200
N320        N  0.68187516  0.07670741  0.03084489    -0.27000
Co321      Co  0.62893365  0.12815378  0.03358637     0.74100
C322        C  0.73385851  0.23947864  0.01882598     0.41600
N323        N  0.68147205  0.19524005  0.18419428     0.00000
N324        N  0.68107315  0.18447731  0.03841558     0.00100
N325        N  0.54443158  0.00150135  0.04006292    -0.47900
H326        H  0.71325405  0.95286088  0.15719472     0.05900
N327        N  0.68259160  0.03940946  0.05977866     0.00400
N328        N  0.57635118  0.17906101  0.04403722     0.00100
C329        C  0.51222378  0.21949395  0.03920317     0.41700
N330        N  0.67831651  0.15823848  0.21331485    -0.26500
C331        C  0.53360910  0.99822740  0.16043702    -0.07400
N332        N  0.70368486  0.03788596  0.24044811    -0.47600
N333        N  0.53765977  0.18407525  0.01784055    -0.47800
C334        C  0.50722849  0.01339378  0.20314423     0.41500
N335        N  0.57663336  0.03476121  0.05329797     0.00400
N336        N  0.57284279  0.16431981  0.21362337    -0.26500
N337        N  0.67647702  0.02112247  0.16791125    -0.27000
N338        N  0.57649562  0.20233306  0.18605430     0.00000
H339        H  0.52700400  0.14894981  0.27433674     0.05900
H340        H  0.52952825  0.26485415  0.10631772     0.05900
N341        N  0.57701175  0.07215715  0.02466666    -0.27000
N342        N  0.68285751  0.21296940  0.07661880    -0.26600
N343        N  0.57011035  0.05690446  0.19664740     0.00400
C344        C  0.74569532  0.03222431  0.01649135     0.41800
C345        C  0.71464677  0.16015778  0.24413656    -0.07900
N346        N  0.57777884  0.20953441  0.08074345    -0.26600
H347        H  0.72226277  0.27896431  0.09118283     0.05900
N348        N  0.72021563  0.01135896  0.05189065    -0.47900
H349        H  0.72090803  0.13542415  0.27300017     0.05900
C350        C  0.51814528  0.22102628  0.23511613     0.41600
C351        C  0.70700370  0.98480468  0.17895725    -0.07400
Co352      Co  0.62389646  0.10767175  0.20796353     0.73800
N353        N  0.71795693  0.22374659  0.19442322    -0.47600
C354        C  0.52157358  0.01704946  0.00027578     0.41900
N355        N  0.53217354  0.04961204  0.22406369    -0.47600
Co356      Co  0.63022851  0.20604910  0.13211430     0.73900
C357        C  0.53879601  0.23718140  0.08027912    -0.07900
C358        C  0.72022798  0.07535336  0.00242518    -0.07500
N359        N  0.57195203  0.02697217  0.15949185    -0.27000
N360        N  0.70977701  0.19959059  0.00322654    -0.47800
H361        H  0.53684194  0.08783525  0.96042919     0.05900
C362        C  0.53682622  0.17253845  0.24545900    -0.07900
Cl363      Cl  0.62789351  0.11777268  0.12089045    -0.50900
C364        C  0.74106416  0.20295481  0.23095720     0.41600
H365        H  0.52563992  0.97000434  0.13461179     0.05900
N366        N  0.54551033  0.23704137  0.19837000    -0.47600
C367        C  0.57714641  0.58186976  0.12464869     0.85500
C368        C  0.55279460  0.62578092  0.10186110    -0.54700
C369        C  0.58459530  0.65716146  0.08219322     0.08500
C370        C  0.63697827  0.64303829  0.08701221     0.19400
C371        C  0.60817349  0.56022393  0.08460728    -0.55400
C372        C  0.63943722  0.59238738  0.06539918     0.08600
C373        C  0.61275424  0.60415059  0.16043084    -0.55000
C374        C  0.64366701  0.63616698  0.14052562     0.09100
H375        H  0.51458623  0.63183930  0.09917535     0.13600
H376        H  0.66246963  0.66893653  0.07070113    -0.00600
H377        H  0.60657123  0.52259080  0.07334991     0.13900
H378        H  0.61235595  0.59663464  0.19843983     0.13700
C379        C  0.14509080  0.66144901  0.65119031     0.85500
C380        C  0.18155048  0.62738260  0.62717507    -0.54700
C381        C  0.16110467  0.59324836  0.59801513     0.08500
C382        C  0.10626231  0.59613500  0.59561649     0.19400
C383        C  0.11672464  0.68234489  0.60967014    -0.55400
C384        C  0.09660325  0.64788317  0.58104181     0.08600
C385        C  0.10970201  0.62868212  0.67648616    -0.55000
C386        C  0.09035119  0.59414550  0.64762228     0.09100
H387        H  0.21998457  0.63022839  0.63279007     0.13600
H388        H  0.08892874  0.56885756  0.57192110    -0.00600
H389        H  0.11094803  0.72013219  0.60309886     0.13900
H390        H  0.10198926  0.63126350  0.71456346     0.13700
C391        C  0.25168424  0.26023306  0.46404771     0.41500
N392        N  0.27515753  0.31013442  0.40878259     0.00400
C393        C  0.49532818  0.30138841  0.28298224    -0.07500
H394        H  0.50965273  0.33869722  0.46395075     0.05900
C395        C  0.42749261  0.49388022  0.44650365    -0.07800
Co396      Co  0.36936518  0.27876847  0.36282588     0.74200
N397        N  0.45094636  0.32038907  0.41744397    -0.27000
Co398      Co  0.45406613  0.37036654  0.36307844     0.74100
C399        C  0.47320248  0.47886690  0.46860311     0.41600
N400        N  0.30838298  0.45305660  0.40845810     0.00000
N401        N  0.45165814  0.42719189  0.41355709     0.00100
N402        N  0.44322071  0.23936559  0.28647619    -0.47900
H403        H  0.32032346  0.21487701  0.45418752     0.05900
N404        N  0.41851464  0.28568173  0.41785751     0.00400
N405        N  0.45210401  0.42080731  0.30898611     0.00100
C406        C  0.46655325  0.46207251  0.24695196     0.41700
N407        N  0.27521612  0.41895993  0.40686473    -0.26500
C408        C  0.31656073  0.24471641  0.27255414    -0.07400
N409        N  0.23933965  0.30030809  0.43922906    -0.47600
N410        N  0.48300284  0.42530048  0.27333695    -0.47800
C411        C  0.27461373  0.25934285  0.24584066     0.41500
N412        N  0.42848499  0.27645792  0.31393963     0.00400
N413        N  0.27715882  0.42053046  0.30250723    -0.26500
N414        N  0.31058718  0.27859533  0.41156486    -0.27000
N415        N  0.31033721  0.45461336  0.30361741     0.00000
H416        H  0.21090291  0.41423289  0.26250076     0.05900
H417        H  0.40082430  0.51086989  0.26029776     0.05900
N418        N  0.45917325  0.31270009  0.31333156    -0.27000
N419        N  0.41717032  0.45977997  0.41273355    -0.26600
N420        N  0.28546146  0.30956002  0.30359376     0.00400
C421        C  0.46062747  0.27400106  0.48010862     0.41800
C422        C  0.24342708  0.42702272  0.44200284    -0.07900
N423        N  0.41738920  0.45319185  0.30785806    -0.26600
H424        H  0.40713655  0.52653691  0.45301975     0.05900
N425        N  0.42352977  0.25651992  0.45439314    -0.47900
H426        H  0.21193074  0.40547590  0.44903607     0.05900
C427        C  0.26075242  0.47923259  0.24849666     0.41600
C428        C  0.29913421  0.24615346  0.44537494    -0.07400
Co429      Co  0.27715194  0.36460723  0.35509701     0.73800
N430        N  0.30096391  0.48483040  0.44316502    -0.47600
C431        C  0.48508518  0.25258985  0.26500309     0.41900
N432        N  0.25665275  0.29950648  0.26728292    -0.47600
Co433      Co  0.36328004  0.45592949  0.35839554     0.73900
C434        C  0.42350350  0.48094493  0.26992074    -0.07900
C435        C  0.47909825  0.31614564  0.45562308    -0.07500
N436        N  0.32033950  0.27746988  0.30756743    -0.27000
N437        N  0.48544805  0.43730744  0.44570343    -0.47800
H438        H  0.52733247  0.32275922  0.27771469     0.05900
C439        C  0.24408775  0.43325148  0.26938858    -0.07900
Cl440      Cl  0.36583167  0.36741677  0.35970983    -0.50900
C441        C  0.26095524  0.47055139  0.46601178     0.41600
H442        H  0.33919604  0.21331077  0.26782157     0.05900
N443        N  0.30166295  0.48985623  0.27269559    -0.47600
C444        C  0.71807076  0.70934900  0.73001991     0.41500
N445        N  0.70083910  0.66350584  0.67041927     0.00400
C446        C  0.50089905  0.66626194  0.52872009    -0.07500
H447        H  0.45686465  0.65351923  0.70838011     0.05900
C448        C  0.56242187  0.48765403  0.69851268    -0.07800
Co449      Co  0.61296557  0.69837197  0.62030724     0.74200
N450        N  0.52491121  0.66194968  0.67173073    -0.27000
Co451      Co  0.52750041  0.60683163  0.61755527     0.74100
C452        C  0.51963298  0.50316234  0.72440143     0.41600
N453        N  0.67521572  0.51934615  0.66234955     0.00000
N454        N  0.53265002  0.55202229  0.66748772     0.00100
N455        N  0.55684930  0.72550919  0.53212348    -0.47900
H456        H  0.65164330  0.75702249  0.71802290     0.05900
N457        N  0.55683077  0.69718481  0.67227615     0.00400
N458        N  0.52731323  0.55302974  0.56268006     0.00100
C459        C  0.50397079  0.50398856  0.50586822     0.41700
N460        N  0.70768194  0.55406669  0.66344168    -0.26500
C461        C  0.67825955  0.73728039  0.53586352    -0.07400
N462        N  0.73355819  0.67110530  0.70380972    -0.47600
N463        N  0.49210509  0.54423685  0.53146773    -0.47800
C464        C  0.72393469  0.72323952  0.51297679     0.41500
N465        N  0.56119231  0.69533252  0.56784654     0.00400
N466        N  0.70285553  0.56225481  0.55914359    -0.26500
N467        N  0.66570726  0.69558656  0.67237176    -0.27000
N468        N  0.67088928  0.52711136  0.55696926     0.00000
H469        H  0.76277689  0.58151253  0.51503242     0.05900
H470        H  0.57099970  0.45638721  0.51583383     0.05900
N471        N  0.52874431  0.66061265  0.56687545    -0.27000
N472        N  0.56748232  0.51975433  0.66399446    -0.26600
N473        N  0.70297600  0.67014455  0.56582076     0.00400
C474        C  0.50267156  0.72111455  0.72438542     0.41800
C475        C  0.74188961  0.54191903  0.69537001    -0.07900
N476        N  0.56210606  0.52072105  0.55984007    -0.26600
H477        H  0.58537241  0.45674036  0.70349268     0.05900
N478        N  0.54421116  0.73331567  0.70188729    -0.47900
H479        H  0.77417718  0.56232496  0.70255579     0.05900
C480        C  0.71566522  0.51581717  0.49542568     0.41600
C481        C  0.67319307  0.72565853  0.70923306    -0.07400
Co482      Co  0.70435157  0.61248726  0.61487048     0.73800
N483        N  0.68548682  0.48385869  0.69255798    -0.47600
C484        C  0.51990857  0.70905464  0.50572298     0.41900
N485        N  0.73677171  0.68126546  0.53389127    -0.47600
Co486      Co  0.61898092  0.52086203  0.61058675     0.73900
C487        C  0.55059386  0.48839822  0.52500373    -0.07900
C488        C  0.48981177  0.67351397  0.70368152    -0.07500
N489        N  0.66832481  0.70256624  0.56800365    -0.27000
N490        N  0.50269320  0.54307956  0.70307529    -0.47800
H491        H  0.47109736  0.64334360  0.51879563     0.05900
C492        C  0.73237786  0.55832991  0.52168764    -0.07900
Cl493      Cl  0.61593724  0.60960201  0.61607560    -0.50900
C494        C  0.72700716  0.49540008  0.71552245     0.41600
H495        H  0.65730814  0.76959813  0.53068979     0.05900
N496        N  0.67771813  0.49790736  0.51963442    -0.47600
C497        C  0.58285653  0.15883090  0.59688564     0.85500
C498        C  0.55986614  0.11891384  0.62661307    -0.54700
C499        C  0.59242100  0.08775605  0.64499289     0.08500
C500        C  0.64443637  0.09895588  0.63321697     0.19400
C501        C  0.61911384  0.18267193  0.63133688    -0.55400
C502        C  0.65107264  0.15085568  0.64967047     0.08600
C503        C  0.61355124  0.13193167  0.55943214    -0.55000
C504        C  0.64557652  0.10075621  0.57878816     0.09100
H505        H  0.52152887  0.11559883  0.63286986     0.13600
H506        H  0.67019828  0.07325224  0.64919217    -0.00600
H507        H  0.61910615  0.22021588  0.64254957     0.13900
H508        H  0.60952111  0.13632389  0.52112936     0.13700
C509        C  0.07794488  0.08081827  0.14323741     0.85500
C510        C  0.05104756  0.12328866  0.12155747    -0.54700
C511        C  0.07921651  0.15199738  0.09441957     0.08500
C512        C  0.13180804  0.13721901  0.09223299     0.19400
C513        C  0.10269551  0.05533710  0.10127787    -0.55400
C514        C  0.13082797  0.08470440  0.07439915     0.08600
C515        C  0.11857571  0.10498999  0.17167144    -0.55000
C516        C  0.14666246  0.13469837  0.14478016     0.09100
H517        H  0.01310962  0.13041482  0.12597933     0.13600
H518        H  0.15422426  0.16163840  0.07038940    -0.00600
H519        H  0.09931500  0.01679877  0.09467109     0.13900
H520        H  0.12325941  0.10081815  0.20990717     0.13700
C521        C  0.24518840  0.17764130  0.22560256    -0.14300
C522        C  0.24628102  0.22703637  0.21551086     0.07800
C523        C  0.21764535  0.24526570  0.17900091    -0.14300
C524        C  0.18698411  0.21442650  0.15376005    -0.14300
C525        C  0.18401383  0.16552074  0.16583353     0.07800
C526        C  0.21401592  0.14715548  0.20113818    -0.14300
H527        H  0.26668547  0.16288899  0.25401447     0.11800
H528        H  0.21824723  0.28333579  0.17087272     0.11800
H529        H  0.16377244  0.22929007  0.12674662     0.11800
H530        H  0.21241537  0.10946295  0.21062726     0.11800
C531        C  0.47878857  0.19688703  0.51944836    -0.14300
C532        C  0.48606347  0.24665870  0.51632541     0.07800
C533        C  0.52172602  0.26896070  0.54390828    -0.14300
C534        C  0.55172125  0.24146691  0.57227299    -0.14300
C535        C  0.54647901  0.19101227  0.57344734     0.07800
C536        C  0.50912761  0.16925796  0.54721677    -0.14300
H537        H  0.45159742  0.17886684  0.49818065     0.11800
H538        H  0.52776805  0.30746546  0.54208833     0.11800
H539        H  0.58039078  0.26007274  0.59050718     0.11800
H540        H  0.50468410  0.13045313  0.54661856     0.11800
C541        C  0.25646646  0.54442815  0.51590462    -0.14300
C542        C  0.23739149  0.49923489  0.50343235     0.07800
C543        C  0.19496923  0.48333513  0.52515920    -0.14300
C544        C  0.17094771  0.51328055  0.55768234    -0.14300
C545        C  0.18908017  0.55933166  0.56850920     0.07800
C546        C  0.23240137  0.57434981  0.54804703    -0.14300
H547        H  0.28921045  0.55745669  0.49960808     0.11800
H548        H  0.17988698  0.44834901  0.51648806     0.11800
H549        H  0.13797789  0.50068011  0.57382173     0.11800
H550        H  0.24670427  0.61000151  0.55520581     0.11800
C551        C  0.46927479  0.51889608  0.17994025    -0.14300
C552        C  0.49263598  0.48485515  0.20802958     0.07800
C553        C  0.54183783  0.47690702  0.20202637    -0.14300
C554        C  0.56816409  0.50645010  0.17192359    -0.14300
C555        C  0.54573098  0.54463279  0.14802321     0.07800
C556        C  0.49549446  0.54852515  0.15003748    -0.14300
H557        H  0.43088925  0.52423823  0.18262841     0.11800
H558        H  0.56041475  0.45014913  0.22282118     0.11800
H559        H  0.60669690  0.50170860  0.16983703     0.11800
H560        H  0.47585517  0.57525197  0.13063003     0.11800
C561        C  0.84713415  0.24855844  0.29826013    -0.14300
C562        C  0.82720364  0.29001916  0.31979881     0.07800
C563        C  0.77830696  0.29978631  0.31587075    -0.14300
C564        C  0.74990826  0.27022592  0.28745002    -0.14300
C565        C  0.77026158  0.23037795  0.26384375     0.07800
C566        C  0.81837173  0.21831872  0.27052363    -0.14300
H567        H  0.88520134  0.24128170  0.30079460     0.11800
H568        H  0.76300433  0.33232111  0.33150557     0.11800
H569        H  0.71246419  0.27930551  0.28245019     0.11800
H570        H  0.83398645  0.18726299  0.25241363     0.11800
C571        C  0.99942228  0.41142409  0.29479709    -0.14300
C572        C  0.94918270  0.41320581  0.29124598     0.07800
C573        C  0.92828915  0.43381435  0.25071362    -0.14300
C574        C  0.95635157  0.45764721  0.21777421    -0.14300
C575        C  0.00583394  0.46077495  0.22467978     0.07800
C576        C  0.02759973  0.43507318  0.26146846    -0.14300
H577        H  0.01745517  0.39292259  0.32315540     0.11800
H578        H  0.88976151  0.43347484  0.24583762     0.11800
H579        H  0.93887867  0.47650696  0.18902975     0.11800
H580        H  0.06612397  0.43554487  0.26611378     0.11800
C581        C  0.95639066  0.34144834  0.47379139    -0.14300
C582        C  0.91822632  0.32584197  0.44531315     0.07800
C583        C  0.90127202  0.27831607  0.44871933    -0.14300
C584        C  0.92626373  0.24510183  0.47592667    -0.14300
C585        C  0.96807052  0.25958664  0.49958602     0.07800
C586        C  0.98136539  0.30840602  0.50063662    -0.14300
H587        H  0.96925237  0.37825783  0.47218232     0.11800
H588        H  0.87179119  0.26562350  0.42683929     0.11800
H589        H  0.91505018  0.20771710  0.47550690     0.11800
H590        H  0.01270432  0.32070010  0.52006434     0.11800
C591        C  0.81310693  0.48613985  0.40690822    -0.14300
C592        C  0.80524563  0.43677414  0.39797908     0.07800
C593        C  0.76381762  0.41508274  0.41683057    -0.14300
C594        C  0.73273731  0.44149560  0.44655769    -0.14300
C595        C  0.74258840  0.48997730  0.45765901     0.07800
C596        C  0.78189105  0.51247798  0.43597455    -0.14300
H597        H  0.84477692  0.50425455  0.39382336     0.11800
H598        H  0.75593598  0.37746894  0.40982909     0.11800
H599        H  0.70230492  0.42344335  0.46250236     0.11800
H600        H  0.79000325  0.55003351  0.44308083     0.11800
C601        C  0.29634737  0.83549299  0.25876888    -0.14300
C602        C  0.29511807  0.82731351  0.30791507     0.07800
C603        C  0.25944389  0.79839518  0.32788437    -0.14300
C604        C  0.22764788  0.77399130  0.29824211    -0.14300
C605        C  0.23240144  0.77754690  0.24852460     0.07800
C606        C  0.26510975  0.81026956  0.22891744    -0.14300
H607        H  0.32408463  0.85783509  0.24328905     0.11800
H608        H  0.25846008  0.79213106  0.36601036     0.11800
H609        H  0.20246502  0.74906131  0.31403868     0.11800
H610        H  0.26870286  0.81382182  0.19057890     0.11800
C611        C  0.44748136  0.00478200  0.26830628    -0.14300
C612        C  0.47175761  0.98472595  0.22874271     0.07800
C613        C  0.46749944  0.93525042  0.21834559    -0.14300
C614        C  0.44339905  0.90544225  0.24979285    -0.14300
C615        C  0.42240848  0.92506425  0.29108658     0.07800
C616        C  0.42242637  0.97493739  0.29924985    -0.14300
H617        H  0.45012926  0.04294560  0.27666912     0.11800
H618        H  0.48572358  0.91883326  0.18801565     0.11800
H619        H  0.44287656  0.86686580  0.24307958     0.11800
H620        H  0.40604149  0.99028548  0.33108572     0.11800
C621        C  0.28387882  0.91070929  0.45039921    -0.14300
C622        C  0.32063010  0.93099388  0.42313362     0.07800
C623        C  0.32202364  0.98074287  0.41582313    -0.14300
C624        C  0.28826237  0.01054784  0.43808086    -0.14300
C625        C  0.25234230  0.99044795  0.46682478     0.07800
C626        C  0.24956212  0.94028078  0.47181729    -0.14300
H627        H  0.28165324  0.87200423  0.45476295     0.11800
H628        H  0.34961337  0.99649190  0.39371985     0.11800
H629        H  0.29066674  0.04916367  0.43349726     0.11800
H630        H  0.22204379  0.92401845  0.49377937     0.11800
C631        C  0.47919811  0.81472689  0.43533235    -0.14300
C632        C  0.43880833  0.79547265  0.41193484     0.07800
C633        C  0.42959279  0.74566669  0.41507032    -0.14300
C634        C  0.45823638  0.71676388  0.44320990    -0.14300
C635        C  0.49631269  0.73696766  0.46890803     0.07800
C636        C  0.50797454  0.78564805  0.46327835    -0.14300
H637        H  0.48744369  0.85281489  0.43328982     0.11800
H638        H  0.39954707  0.72836405  0.39800140     0.11800
H639        H  0.44922166  0.67897576  0.44632246     0.11800
H640        H  0.53760522  0.80189763  0.48256260     0.11800
C641        C  0.27125556  0.32802188  0.79610028    -0.14300
C642        C  0.31784206  0.31094423  0.80308852     0.07800
C643        C  0.33457333  0.27059015  0.77746304    -0.14300
C644        C  0.30387612  0.24516800  0.74781666    -0.14300
C645        C  0.25627853  0.26030899  0.74280490     0.07800
C646        C  0.24033374  0.30263014  0.76595130    -0.14300
H647        H  0.25800089  0.35902759  0.81602252     0.11800
H648        H  0.37081329  0.25740575  0.78225505     0.11800
H649        H  0.31722356  0.21309736  0.72967183     0.11800
H650        H  0.20380508  0.31512387  0.76215170     0.11800
C651        C  0.26847863  0.44129328  0.90650507    -0.14300
C652        C  0.31482800  0.43227431  0.92291440     0.07800
C653        C  0.33287903  0.45768311  0.96256480    -0.14300
C654        C  0.30361412  0.48893783  0.98812112    -0.14300
C655        C  0.25618178  0.49598476  0.97374461     0.07800
C656        C  0.23902936  0.47322522  0.93199067    -0.14300
H657        H  0.25425491  0.42171068  0.87598688     0.11800
H658        H  0.36902598  0.45140175  0.97517262     0.11800
H659        H  0.31790677  0.50675700  0.01968280     0.11800
H660        H  0.20257515  0.47861385  0.92007457     0.11800
C661        C  0.41794588  0.24414128  0.95049026    -0.14300
C662        C  0.42055138  0.29472647  0.94937200     0.07800
C663        C  0.44760263  0.31978386  0.98396921    -0.14300
C664        C  0.47433607  0.29494028  0.01675899    -0.14300
C665        C  0.47480735  0.24469968  0.01485895     0.07800
C666        C  0.44543079  0.21922547  0.98302995    -0.14300
H667        H  0.39675087  0.22308394  0.92579668     0.11800
H668        H  0.44957883  0.35882866  0.98420009     0.11800
H669        H  0.49733219  0.31506419  0.04091600     0.11800
H670        H  0.44567981  0.18022218  0.98179409     0.11800
C671        C  0.48519407  0.40177710  0.80496242    -0.14300
C672        C  0.44045898  0.41737484  0.82227997     0.07800
C673        C  0.42310065  0.46286430  0.80951037    -0.14300
C674        C  0.44961892  0.49177095  0.77871181    -0.14300
C675        C  0.49375382  0.47543874  0.76047629     0.07800
C676        C  0.51172886  0.43066394  0.77467148    -0.14300
H677        H  0.49922823  0.36658961  0.81364353     0.11800
H678        H  0.38913747  0.47609249  0.82325345     0.11800
H679        H  0.43524486  0.52638258  0.76851019     0.11800
H680        H  0.54568646  0.41700119  0.76151807     0.11800
C681        C  0.18919507  0.77573098  0.71461366    -0.14300
C682        C  0.21714863  0.75521604  0.75025025     0.07800
C683        C  0.21759237  0.70526650  0.75625816    -0.14300
C684        C  0.19350270  0.67581461  0.72415994    -0.14300
C685        C  0.16791959  0.69581207  0.68613500     0.07800
C686        C  0.16445908  0.74630026  0.68265155    -0.14300
H687        H  0.18808882  0.81447820  0.71012701     0.11800
H688        H  0.23904745  0.68870749  0.78369410     0.11800
H689        H  0.19598453  0.63708693  0.72811515     0.11800
H690        H  0.14442602  0.76376645  0.65530640     0.11800
C691        C  0.14526711  0.02509362  0.00848189    -0.14300
C692        C  0.16031696  0.06602831  0.03458871     0.07800
C693        C  0.20623722  0.08509431  0.02660055    -0.14300
C694        C  0.23808146  0.06094930  0.99623314    -0.14300
C695        C  0.22434207  0.01740579  0.97448259     0.07800
C696        C  0.17754658  0.00032231  0.97923095    -0.14300
H697        H  0.10945827  0.01065694  0.01274288     0.11800
H698        H  0.21894984  0.11632239  0.04640265     0.11800
H699        H  0.27447391  0.07417364  0.99265575     0.11800
H700        H  0.16670015  0.96686667  0.96195146     0.11800
C701        C  0.51570260  0.76487156  0.04484474    -0.14300
C702        C  0.51952937  0.75994969  0.99498495     0.07800
C703        C  0.55166985  0.72657571  0.97470893    -0.14300
C704        C  0.57686556  0.69557961  0.00409586    -0.14300
C705        C  0.56897270  0.69734160  0.05350643     0.07800
C706        C  0.53991266  0.73308871  0.07406119    -0.14300
H707        H  0.49108333  0.79055097  0.06110197     0.11800
H708        H  0.55528007  0.72277757  0.93628805     0.11800
H709        H  0.59936747  0.66778884  0.98813103     0.11800
H710        H  0.53387851  0.73449685  0.11234235     0.11800
C711        C  0.56192669  0.01995396  0.75425323    -0.14300
C712        C  0.53069567  0.98531082  0.73487416     0.07800
C713        C  0.52741764  0.97888695  0.68516263    -0.14300
C714        C  0.55073311  0.01069279  0.65515524    -0.14300
C715        C  0.57825370  0.04798749  0.67483752     0.07800
C716        C  0.58611729  0.05108935  0.72406643    -0.14300
H717        H  0.56516923  0.02492737  0.79255644     0.11800
H718        H  0.50355329  0.95223039  0.66954938     0.11800
H719        H  0.54490850  0.00820545  0.61693058     0.11800
H720        H  0.60771649  0.07988397  0.73924592     0.11800
C721        C  0.70286585  0.19377296  0.76507530    -0.14300
C722        C  0.74875330  0.20805264  0.75012668     0.07800
C723        C  0.76481967  0.19570888  0.70384735    -0.14300
C724        C  0.73349253  0.17411398  0.67140982    -0.14300
C725        C  0.68628122  0.16480376  0.68528154     0.07800
C726        C  0.67150543  0.17270541  0.73248582    -0.14300
H727        H  0.68979953  0.20198331  0.80072027     0.11800
H728        H  0.80029547  0.20586921  0.69169010     0.11800
H729        H  0.74504870  0.16752326  0.63486463     0.11800
H730        H  0.63500081  0.16503393  0.74331590     0.11800
C731        C  0.99436392  0.24516543  0.05197050    -0.14300
C732        C  0.00456847  0.24410719  0.00292335     0.07800
C733        C  0.04289201  0.21659133  0.98494234    -0.14300
C734        C  0.06988613  0.18896305  0.01578012    -0.14300
C735        C  0.05845040  0.18875774  0.06451015     0.07800
C736        C  0.02150020  0.21786721  0.08272624    -0.14300
H737        H  0.96531092  0.26681243  0.06655101     0.11800
H738        H  0.05115080  0.21533814  0.94710782     0.11800
H739        H  0.09776735  0.16575649  0.00122448     0.11800
H740        H  0.01255256  0.21801121  0.12045360     0.11800
C741        C  0.69229377  0.53180530  0.95828747    -0.14300
C742        C  0.74084123  0.53088751  0.97139424     0.07800
C743        C  0.75668148  0.55860305  0.01057289    -0.14300
C744        C  0.72336270  0.58258223  0.03944038    -0.14300
C745        C  0.67443967  0.57828442  0.02931988     0.07800
C746        C  0.65907567  0.55482684  0.98765572    -0.14300
H747        H  0.67932873  0.51128108  0.92774757     0.11800
H748        H  0.79406458  0.55903611  0.02079022     0.11800
H749        H  0.73533131  0.60102142  0.07166684     0.11800
H750        H  0.62119896  0.55199871  0.97944965     0.11800
C751        C  0.04935332  0.50406868  0.73456940    -0.14300
C752        C  0.00168497  0.49748469  0.72030531     0.07800
C753        C  0.98546166  0.51673889  0.67723613    -0.14300
C754        C  0.01592197  0.54567726  0.65057413    -0.14300
C755        C  0.06204580  0.55549462  0.66748165     0.07800
C756        C  0.07944661  0.53275500  0.70810672    -0.14300
H757        H  0.06308854  0.48836871  0.76697822     0.11800
H758        H  0.94899507  0.51116613  0.66526418     0.11800
H759        H  0.00260912  0.56242500  0.61864855     0.11800
H760        H  0.11561615  0.53934573  0.72069696     0.11800
C761        C  0.70459607  0.74388358  0.19521432    -0.14300
C762        C  0.73518839  0.72183112  0.22787488     0.07800
C763        C  0.73697387  0.67135698  0.23042623    -0.14300
C764        C  0.70746502  0.64319132  0.20143981    -0.14300
C765        C  0.67683064  0.66527673  0.16894423     0.07800
C766        C  0.67599248  0.71560578  0.16526878    -0.14300
H767        H  0.70283586  0.78281618  0.19299135     0.11800
H768        H  0.75997819  0.65369265  0.25587733     0.11800
H769        H  0.70827201  0.60430431  0.20448816     0.11800
H770        H  0.65202547  0.73296375  0.14045518     0.11800
C771        C  0.97038703  0.01075706  0.19015373    -0.14300
C772        C  0.99260429  0.98080363  0.22296973     0.07800
C773        C  0.04266133  0.98028718  0.22679816    -0.14300
C774        C  0.06999752  0.01266873  0.20079206    -0.14300
C775        C  0.04756171  0.04598489  0.17086154     0.07800
C776        C  0.99765679  0.04246467  0.16359869    -0.14300
H777        H  0.93180224  0.01019780  0.18562983     0.11800
H778        H  0.06045137  0.95664849  0.25157930     0.11800
H779        H  0.10861340  0.01238596  0.20479102     0.11800
H780        H  0.97901193  0.06342746  0.13737644     0.11800
C781        C  0.98349400  0.68443818  0.52508944    -0.14300
C782        C  0.00141137  0.71988750  0.49483497     0.07800
C783        C  0.05054919  0.72218152  0.48438580    -0.14300
C784        C  0.08218252  0.69280849  0.50835876    -0.14300
C785        C  0.06469616  0.66149674  0.54295149     0.07800
C786        C  0.01533217  0.65534595  0.54952895    -0.14300
H787        H  0.94540925  0.68181393  0.53246395     0.11800
H788        H  0.06475203  0.74806052  0.45942862     0.11800
H789        H  0.12043239  0.69771490  0.50334934     0.11800
H790        H  0.00167657  0.63202659  0.57699328     0.11800
C791        C  0.68199190  0.00504349  0.49029171    -0.14300
C792        C  0.72958095  0.99723025  0.50405427     0.07800
C793        C  0.75024773  0.02507595  0.54052208    -0.14300
C794        C  0.72293257  0.05984191  0.56424531    -0.14300
C795        C  0.67531560  0.06768985  0.55067028     0.07800
C796        C  0.65496399  0.04053010  0.51334234    -0.14300
H797        H  0.66608548  0.98440113  0.46126882     0.11800
H798        H  0.78726743  0.01963037  0.55072917     0.11800
H799        H  0.73891634  0.08063377  0.59314702     0.11800
H800        H  0.61798182  0.04582108  0.50304380     0.11800
C801        C  0.81657887  0.99044272  0.91000353    -0.14300
C802        C  0.83250785  0.94600796  0.92641946     0.07800
C803        C  0.82755458  0.93398367  0.97450441    -0.14300
C804        C  0.80232810  0.96448463  0.00537152    -0.14300
C805        C  0.78223070  0.00707506  0.98810681     0.07800
C806        C  0.79181952  0.02128311  0.94095306    -0.14300
H807        H  0.82057034  0.99974392  0.87272694     0.11800
H808        H  0.84006049  0.89946194  0.98717327     0.11800
H809        H  0.79576871  0.95325097  0.04174654     0.11800
H810        H  0.77714018  0.05413255  0.92672684     0.11800
C811        C  0.97587538  0.90429846  0.77819826    -0.14300
C812        C  0.93996460  0.92482046  0.80681490     0.07800
C813        C  0.93757870  0.97486476  0.81380185    -0.14300
C814        C  0.96970877  0.00461605  0.79013305    -0.14300
C815        C  0.00508210  0.98424344  0.76047428     0.07800
C816        C  0.00876803  0.93390326  0.75550736    -0.14300
H817        H  0.97818967  0.86554405  0.77330160     0.11800
H818        H  0.90996827  0.99083742  0.83634913     0.11800
H819        H  0.96633527  0.04339655  0.79404133     0.11800
H820        H  0.03543341  0.91740107  0.73229085     0.11800
C821        C  0.82677939  0.76682734  0.78584932    -0.14300
C822        C  0.80584457  0.80375340  0.81403426     0.07800
C823        C  0.75546014  0.80565605  0.81770692    -0.14300
C824        C  0.72712569  0.77324719  0.79203742    -0.14300
C825        C  0.74823664  0.73812981  0.76233837     0.07800
C826        C  0.79829321  0.73424783  0.76033353    -0.14300
H827        H  0.86546839  0.76382171  0.78297846     0.11800
H828        H  0.73698086  0.83182985  0.83978205     0.11800
H829        H  0.68844225  0.77628822  0.79477571     0.11800
H830        H  0.81542435  0.70730438  0.73758043     0.11800
C831        C  0.98251748  0.82731942  0.93176431    -0.14300
C832        C  0.93267236  0.82600718  0.93718287     0.07800
C833        C  0.91185588  0.80534991  0.97747417    -0.14300
C834        C  0.94055894  0.78261718  0.01064464    -0.14300
C835        C  0.99023299  0.77950406  0.00302993     0.07800
C836        C  0.01133950  0.80367535  0.96452627    -0.14300
H837        H  0.99871712  0.84378936  0.90073919     0.11800
H838        H  0.87324233  0.80502064  0.98205742     0.11800
H839        H  0.92332135  0.76455447  0.04008130     0.11800
H840        H  0.04969435  0.80192649  0.95833909     0.11800
loop_ 
_geom_bond_atom_site_label_1 
_geom_bond_atom_site_label_2 
_geom_bond_distance 
_geom_bond_site_symmetry_2 
_ccdc_geom_bond_type 
C1            C2   1.531       .  S
C1            C7   1.539       .  S
C1            C5   1.544       .  S
C1          C822   1.516       .  S
C2            H9   1.088       .  S
C2            C3   1.361       .  D
C3            C4   1.520       .  S
C3          C832   1.452       .  S
C4            C8   1.521       .  S
C4            C6   1.515       .  S
C4           H10   1.112       .  S
C5           H11   1.081       .  S
C5            C6   1.361       .  D
C6          C802   1.449       .  S
C7           H12   1.087       .  S
C7            C8   1.365       .  D
C8          C812   1.453       .  S
C13          N31   1.363       .  A
C13          C50   1.485       .  S
C13         C248   1.540   1_665  S
N14          N31   1.340       .  A
N14          N36   1.322       .  A
N14         Co51   2.134       .  S
C15          N40   1.355       .  A
C15          C53   1.472       .  S
C15          H60   1.081       .  S
H16          C57   1.081       .  S
C17          N41   1.352       .  A
C17          C21   1.470       .  S
C17          H46   1.081       .  S
Co18         N36   2.163       .  S
Co18         N26   2.067       .  S
Co18         N58   2.070       .  S
Co18         N34   2.148       .  S
Co18        Cl62   2.456       .  S
N19          C57   1.333       .  A
N19          N26   1.323       .  A
N19         Co20   2.072       .  S
Co20         N23   2.136       .  S
Co20         N40   2.124       .  S
Co20         N27   2.080       .  S
Co20        Cl62   2.466       .  S
C21          N59   1.362       .  A
C21         C464   1.515       .  S
N22          N29   1.322       .  A
N22          N52   1.318       .  A
N22         Co55   2.063       .  S
N23          N41   1.321       .  A
N23          N59   1.337       .  A
N24          C53   1.363       .  A
N24          N34   1.338       .  A
H25          C50   1.081   1_545  S
N26          N47   1.318       .  A
N27          N45   1.320       .  A
N27          N32   1.323       .  A
C28          N32   1.350       .  A
C28          C56   1.452       .  S
C28         C762   1.458       .  S
N29          C44   1.329       .  A
N29         Co51   2.056       .  S
C30          N58   1.334       .  A
C30          C33   1.456       .  S
C30          H64   1.081   1_565  S
C33          N54   1.345       .  A
C33         C772   1.452       .  S
N34          N40   1.323       .  A
N35          C61   1.348       .  A
N35          N37   1.321       .  A
N35         Co51   2.113       .  S
N36          C50   1.362       .  A
N37          N65   1.336       .  A
N37         Co55   2.125       .  S
H38          C61   1.082   1_455  S
H39          C56   1.082       .  S
N41         Co55   2.122       .  S
N42          N54   1.319       .  A
N42          N58   1.320       .  A
N42         Co51   2.062       .  S
C43          N47   1.344       .  A
C43          C57   1.453       .  S
C43         C792   1.446       .  S
C44          C63   1.454       .  S
C44          H48   1.082   1_655  S
N45          C56   1.332       .  A
N45         Co55   2.062       .  S
C49          N65   1.360       .  A
C49          C61   1.465       .  S
C49         C291   1.503   1_655  S
Co51        Cl62   2.467       .  S
N52          C63   1.343       .  A
C53         C314   1.519       .  S
Co55        Cl62   2.456       .  S
C63         C782   1.446   1_655  S
C66          N84   1.345       .  A
C66         C103   1.461       .  S
C66         C742   1.458       .  S
N67          N84   1.316       .  A
N67          N89   1.322       .  A
N67        Co104   2.068       .  S
C68          N93   1.331       .  A
C68         C106   1.452       .  S
C68         H113   1.082   1_655  S
H69         C110   1.082   1_455  S
C70          N94   1.334       .  A
C70          C74   1.454       .  S
C70          H99   1.081       .  S
Co71         N89   2.072       .  S
Co71         N79   2.133       .  S
Co71        N111   2.141       .  S
Co71         N87   2.068       .  S
Co71       Cl115   2.463       .  S
N72         C110   1.359       .  A
N72          N79   1.322       .  A
N72         Co73   2.141       .  S
Co73         N76   2.054       .  S
Co73         N93   2.058       .  S
Co73         N80   2.145       .  S
Co73       Cl115   2.465       .  S
C74         N112   1.343       .  A
C74         C752   1.449   1_655  S
N75          N82   1.320       .  A
N75         N105   1.337       .  A
N75        Co108   2.121       .  S
N76          N94   1.322       .  A
N76         N112   1.313       .  A
N77         C106   1.345       .  A
N77          N87   1.315       .  A
H78         C103   1.081       .  S
N79         N100   1.336       .  A
N80          N98   1.320       .  A
N80          N85   1.339       .  A
C81          N85   1.365       .  A
C81         C109   1.463       .  S
C81         C208   1.514   1_655  S
N82          C97   1.358       .  A
N82        Co104   2.142       .  S
C83         N111   1.359       .  A
C83          C86   1.479       .  S
C83         H117   1.081   1_556  S
C86         N107   1.363       .  A
C86         C322   1.531   1_556  S
N87          N93   1.323       .  A
N88         C114   1.334       .  A
N88          N90   1.319       .  A
N88        Co104   2.065       .  S
N89         C103   1.337       .  A
N90         N118   1.319       .  A
N90        Co108   2.073       .  S
H91         C114   1.081       .  S
H92         C109   1.082       .  S
N94        Co108   2.067       .  S
N95         N107   1.339       .  A
N95         N111   1.321       .  A
N95        Co104   2.139       .  S
C96         N100   1.361       .  A
C96         C110   1.478       .  S
C96         C281   1.524   1_655  S
C97         C116   1.478       .  S
C97         H101   1.081       .  S
N98         C109   1.349       .  A
N98        Co108   2.102       .  S
C102        N118   1.348       .  A
C102        C114   1.462       .  S
C102        C722   1.463       .  S
Co104      Cl115   2.463       .  S
N105        C116   1.360       .  A
C106        C732   1.447   1_656  S
Co108      Cl115   2.453       .  S
C116        C494   1.522       .  S
C119        N137   1.364   1_565  A
C119        C156   1.472       .  S
C119        C354   1.526   1_566  S
N120        N137   1.341   1_565  A
N120        N142   1.321       .  A
N120       Co157   2.139       .  S
C121        N146   1.354       .  A
C121        C159   1.469       .  S
C121        H166   1.081       .  S
H122        C163   1.082       .  S
C123        N147   1.355       .  A
C123        C127   1.472       .  S
C123        H152   1.081       .  S
Co124       N142   2.135       .  S
Co124       N132   2.073       .  S
Co124       N164   2.093       .  S
Co124       N140   2.154       .  S
Co124      Cl168   2.465       .  S
N125        C163   1.337       .  A
N125        N132   1.324       .  A
N125       Co126   2.081       .  S
Co126       N129   2.136       .  S
Co126       N146   2.125       .  S
Co126       N133   2.060       .  S
Co126      Cl168   2.468       .  S
C127        N165   1.364       .  A
C127        C474   1.524       .  S
N128        N135   1.322       .  A
N128        N158   1.318       .  A
N128       Co161   2.069       .  S
N129        N147   1.320       .  A
N129        N165   1.340       .  A
N130        C159   1.370       .  A
N130        N140   1.343       .  A
H131        C156   1.082   1_554  S
N132        N153   1.318       .  A
N133        N151   1.322       .  A
N133        N138   1.316       .  A
C134        N138   1.345       .  A
C134        C162   1.456       .  S
C134        C682   1.447       .  S
N135        C150   1.334       .  A
N135       Co157   2.071       .  S
C136        N164   1.336       .  A
C136        C139   1.456       .  S
C136        H170   1.082   1_556  S
C139        N160   1.342   1_565  A
C139        C695   1.446   1_565  S
N140        N146   1.320       .  A
N141        C167   1.359   1_565  A
N141        N143   1.320       .  A
N141       Co157   2.147       .  S
N142        C156   1.354       .  A
N143        N171   1.339       .  A
N143       Co161   2.132       .  S
H144        C167   1.082       .  S
H145        C162   1.082       .  S
N147       Co161   2.128       .  S
N148        N160   1.320   1_565  A
N148        N164   1.327       .  A
N148       Co157   2.070       .  S
C149        N153   1.345       .  A
C149        C163   1.459       .  S
C149        C702   1.455       .  S
C150        C169   1.458       .  S
C150        H154   1.081   1_565  S
N151        C162   1.332       .  A
N151       Co161   2.067       .  S
C155        N171   1.362       .  A
C155        C167   1.481   1_565  S
C155        C216   1.532   1_565  S
Co157      Cl168   2.476       .  S
N158        C169   1.346       .  A
C159        C311   1.533   1_556  S
Co161      Cl168   2.458       .  S
C169        C712   1.453       .  S
C172        C173   1.532       .  S
C172        C178   1.523       .  S
C172        C176   1.516       .  S
C172        C662   1.492       .  S
C173        H180   1.086       .  S
C173        C174   1.364       .  D
C174        C175   1.537       .  S
C174        C672   1.471       .  S
C175        C179   1.534       .  S
C175        C177   1.530       .  S
C175        H181   1.110       .  S
C176        H182   1.087       .  S
C176        C177   1.355       .  D
C177        C652   1.454       .  S
C178        H183   1.081       .  S
C178        C179   1.361       .  D
C179        C642   1.454       .  S
C184        C185   1.538       .  S
C184        C190   1.533       .  S
C184        C188   1.537       .  S
C184        C632   1.509       .  S
C185        H192   1.087       .  S
C185        C186   1.364       .  D
C186        C187   1.522       .  S
C186        C622   1.454       .  S
C187        C191   1.521       .  S
C187        C189   1.521       .  S
C187        H193   1.112       .  S
C188        H194   1.081       .  S
C188        C189   1.360       .  D
C189        C602   1.450       .  S
C190        H195   1.086       .  S
C190        C191   1.361       .  D
C191        C615   1.453       .  S
C196        C197   1.535       .  S
C196        C202   1.518       .  S
C196        C200   1.534       .  S
C196        C572   1.500       .  S
C197        H204   1.085       .  S
C197        C198   1.367       .  D
C198        C199   1.538       .  S
C198        C592   1.483       .  S
C199        C203   1.528       .  S
C199        C201   1.528       .  S
C199        H205   1.109       .  S
C200        H206   1.081       .  S
C200        C201   1.368       .  D
C201        C582   1.460       .  S
C202        H207   1.088       .  S
C202        C203   1.352       .  D
C203        C562   1.448       .  S
C208        N226   1.361       .  A
C208        C245   1.473   1_455  S
N209        N226   1.337       .  A
N209        N231   1.322       .  A
N209       Co246   2.133       .  S
C210        N235   1.360   1_565  A
C210        C248   1.483   1_565  S
C210        H255   1.081       .  S
H211        C252   1.081   1_565  S
C212        N236   1.357       .  A
C212        C216   1.475       .  S
C212        H241   1.081       .  S
Co213       N231   2.130       .  S
Co213       N221   2.082       .  S
Co213       N253   2.072       .  S
Co213       N229   2.144       .  S
Co213      Cl257   2.469       .  S
N214        C252   1.332       .  A
N214        N221   1.321       .  A
N214       Co215   2.060       .  S
Co215       N218   2.157       .  S
Co215       N235   2.159       .  S
Co215       N222   2.070       .  S
Co215      Cl257   2.470       .  S
C216        N254   1.367       .  A
N217        N224   1.319       .  A
N217        N247   1.315       .  A
N217       Co250   2.064       .  S
N218        N236   1.321       .  A
N218        N254   1.341       .  A
N219        C248   1.364   1_655  A
N219        N229   1.341   1_655  A
H220        C245   1.082       .  S
N221        N242   1.321       .  A
N222        N240   1.321       .  A
N222        N227   1.319       .  A
C223        N227   1.349       .  A
C223        C251   1.456       .  S
C223        C625   1.458   1_545  S
N224        C239   1.335       .  A
N224       Co246   2.055       .  S
C225        N253   1.340   1_655  A
C225        C228   1.458   1_655  S
C225        H259   1.081       .  S
C228        N249   1.342       .  A
C228        C585   1.456   1_455  S
N229        N235   1.324       .  A
N230        C256   1.360       .  A
N230        N232   1.322       .  A
N230       Co246   2.144       .  S
N231        C245   1.353   1_455  A
N232        N260   1.334       .  A
N232       Co250   2.124       .  S
H233        C256   1.082       .  S
H234        C251   1.081       .  S
N236       Co250   2.132       .  S
N237        N249   1.313       .  A
N237        N253   1.323       .  A
N237       Co246   2.063       .  S
C238        N242   1.349       .  A
C238        C252   1.454       .  S
C238        C815   1.456   1_545  S
C239        C258   1.454       .  S
C239        H243   1.082       .  S
N240        C251   1.334       .  A
N240       Co250   2.069       .  S
C244        N260   1.358       .  A
C244        C256   1.481       .  S
C244        C391   1.523       .  S
Co246      Cl257   2.460       .  S
N247        C258   1.346       .  A
Co250      Cl257   2.456       .  S
C258        C645   1.454       .  S
C261        N279   1.349       .  A
C261        C298   1.459       .  S
C261        C835   1.460   1_455  S
N262        N279   1.320       .  A
N262        N284   1.323       .  A
N262       Co299   2.080       .  S
C263        N288   1.330       .  A
C263        C301   1.453       .  S
C263        H308   1.081       .  S
H264        C305   1.082       .  S
C265        N289   1.335       .  A
C265        C269   1.457       .  S
C265        H294   1.081       .  S
Co266       N284   2.072       .  S
Co266       N274   2.116       .  S
Co266       N306   2.110       .  S
Co266       N282   2.069       .  S
Co266      Cl310   2.467       .  S
N267        C305   1.351       .  A
N267        N274   1.319       .  A
N267       Co268   2.115       .  S
Co268       N271   2.067       .  S
Co268       N288   2.058       .  S
Co268       N275   2.114       .  S
Co268      Cl310   2.456       .  S
C269        N307   1.346       .  A
C269        C605   1.455       .  S
N270        N277   1.322       .  A
N270        N300   1.341       .  A
N270       Co303   2.145       .  S
N271        N289   1.322       .  A
N271        N307   1.319       .  A
N272        C301   1.349       .  A
N272        N282   1.319       .  A
H273        C298   1.082   1_655  S
N274        N295   1.335   1_455  A
N275        N293   1.320       .  A
N275        N280   1.336       .  A
C276        N280   1.357       .  A
C276        C304   1.486       .  S
C276        C427   1.529       .  S
N277        C292   1.357   1_554  A
N277       Co299   2.145       .  S
C278        N306   1.351   1_655  A
C278        C281   1.468   1_654  S
C278        H312   1.081       .  S
C281        N302   1.367       .  A
N282        N288   1.320       .  A
N283        C309   1.334   1_554  A
N283        N285   1.324       .  A
N283       Co299   2.062       .  S
N284        C298   1.334       .  A
N285        N313   1.317       .  A
N285       Co303   2.081       .  S
H286        C309   1.081       .  S
H287        C304   1.082       .  S
N289       Co303   2.074       .  S
N290        N302   1.341   1_554  A
N290        N306   1.320       .  A
N290       Co299   2.152       .  S
C291        N295   1.357   1_455  A
C291        C305   1.468       .  S
C292        C311   1.480   1_556  S
C292        H296   1.082       .  S
N293        C304   1.362       .  A
N293       Co303   2.160       .  S
C297        N313   1.348       .  A
C297        C309   1.452   1_554  S
C297        C655   1.455   1_554  S
Co299      Cl310   2.463       .  S
N300        C311   1.365       .  A
C301        C575   1.452       .  S
Co303      Cl310   2.466       .  S
C314        N332   1.356   1_565  A
C314        C351   1.481       .  S
N315        N332   1.335       .  A
N315        N337   1.321       .  A
N315       Co352   2.118       .  S
C316        N341   1.359   1_556  A
C316        C354   1.479   1_556  S
C316        H361   1.082       .  S
H317        C358   1.081   1_556  S
C318        N342   1.360       .  A
C318        C322   1.481       .  S
C318        H347   1.081       .  S
Co319       N337   2.145       .  S
Co319       N327   2.099       .  S
Co319       N359   2.075       .  S
Co319       N335   2.133       .  S
Co319      Cl363   2.464       .  S
N320        C358   1.330       .  A
N320        N327   1.323       .  A
N320       Co321   2.053       .  S
Co321       N324   2.137       .  S
Co321       N341   2.136       .  S
Co321       N328   2.052       .  S
Co321      Cl363   2.464       .  S
C322        N360   1.361       .  A
N323        N330   1.322       .  A
N323        N353   1.318       .  A
N323       Co356   2.070       .  S
N324        N342   1.321       .  A
N324        N360   1.338       .  A
N325        C354   1.361       .  A
N325        N335   1.337       .  A
H326        C351   1.081       .  S
N327        N348   1.322       .  A
N328        N346   1.321       .  A
N328        N333   1.315       .  A
C329        N333   1.343       .  A
C329        C357   1.449       .  S
C329        C665   1.436       .  S
N330        C345   1.334       .  A
N330       Co352   2.070       .  S
C331        N359   1.334   1_565  A
C331        C334   1.457   1_565  S
C331        H365   1.081       .  S
C334        N355   1.349       .  A
C334        C612   1.461   1_545  S
N335        N341   1.320       .  A
N336        C362   1.357       .  A
N336        N338   1.319       .  A
N336       Co352   2.124       .  S
N337        C351   1.359   1_545  A
N338        N366   1.334       .  A
N338       Co356   2.126       .  S
H339        C362   1.081       .  S
H340        C357   1.081       .  S
N342       Co356   2.143       .  S
N343        N355   1.321       .  A
N343        N359   1.321       .  A
N343       Co352   2.079       .  S
C344        N348   1.353       .  A
C344        C358   1.451       .  S
C344        C805   1.460   1_554  S
C345        C364   1.448       .  S
C345        H349   1.082       .  S
N346        C357   1.330       .  A
N346       Co356   2.058       .  S
C350        N366   1.358       .  A
C350        C362   1.475       .  S
C350        C431   1.512       .  S
Co352      Cl363   2.458       .  S
N353        C364   1.347       .  A
Co356      Cl363   2.464       .  S
C364        C565   1.440       .  S
C367        C368   1.542       .  S
C367        C373   1.536       .  S
C367        C371   1.528       .  S
C367        C555   1.509       .  S
C368        H375   1.082       .  S
C368        C369   1.363       .  D
C369        C370   1.519       .  S
C369        C705   1.451       .  S
C370        C374   1.524       .  S
C370        C372   1.522       .  S
C370        H376   1.112       .  S
C371        H377   1.087       .  S
C371        C372   1.362       .  D
C372        C745   1.451       .  S
C373        H378   1.087       .  S
C373        C374   1.361       .  D
C374        C765   1.458       .  S
C379        C380   1.534       .  S
C379        C385   1.521       .  S
C379        C383   1.529       .  S
C379        C685   1.499       .  S
C380        H387   1.086       .  S
C380        C381   1.367       .  D
C381        C382   1.533       .  S
C381        C545   1.465       .  S
C382        C386   1.521       .  S
C382        C384   1.522       .  S
C382        H388   1.110       .  S
C383        H389   1.079       .  S
C383        C384   1.360       .  D
C384        C785   1.445       .  S
C385        H390   1.087       .  S
C385        C386   1.357       .  D
C386        C755   1.447       .  S
C391        N409   1.364       .  A
C391        C428   1.471       .  S
N392        N409   1.341       .  A
N392        N414   1.323       .  A
N392       Co429   2.147       .  S
C393        N418   1.349       .  A
C393        C431   1.465       .  S
C393        H438   1.082       .  S
H394        C435   1.081       .  S
C395        N419   1.359       .  A
C395        C399   1.481       .  S
C395        H424   1.082       .  S
Co396       N414   2.128       .  S
Co396       N404   2.072       .  S
Co396       N436   2.068       .  S
Co396       N412   2.138       .  S
Co396      Cl440   2.463       .  S
N397        C435   1.335       .  A
N397        N404   1.321       .  A
N397       Co398   2.075       .  S
Co398       N401   2.101       .  S
Co398       N418   2.109       .  S
Co398       N405   2.077       .  S
Co398      Cl440   2.463       .  S
C399        N437   1.353       .  A
C399        C459   1.515       .  S
N400        N407   1.323       .  A
N400        N430   1.317       .  A
N400       Co433   2.073       .  S
N401        N419   1.320       .  A
N401        N437   1.332       .  A
N402        C431   1.363       .  A
N402        N412   1.338       .  A
H403        C428   1.081       .  S
N404        N425   1.321       .  A
N405        N423   1.321       .  A
N405        N410   1.323       .  A
C406        N410   1.349       .  A
C406        C434   1.453       .  S
C406        C552   1.459       .  S
N407        C422   1.337       .  A
N407       Co429   2.075       .  S
C408        N436   1.331       .  A
C408        C411   1.452       .  S
C408        H442   1.082       .  S
C411        N432   1.352       .  A
C411        C522   1.459       .  S
N412        N418   1.320       .  A
N413        C439   1.360       .  A
N413        N415   1.323       .  A
N413       Co429   2.154       .  S
N414        C428   1.352       .  A
N415        N443   1.338       .  A
N415       Co433   2.132       .  S
H416        C439   1.082       .  S
H417        C434   1.081       .  S
N419       Co433   2.143       .  S
N420        N432   1.324       .  A
N420        N436   1.324       .  A
N420       Co429   2.096       .  S
C421        N425   1.348       .  A
C421        C435   1.457       .  S
C421        C532   1.461       .  S
C422        C441   1.458       .  S
C422        H426   1.081       .  S
N423        C434   1.331       .  A
N423       Co433   2.064       .  S
C427        N443   1.359       .  A
C427        C439   1.484       .  S
Co429      Cl440   2.477       .  S
N430        C441   1.346       .  A
Co433      Cl440   2.457       .  S
C441        C542   1.459       .  S
C444        N462   1.350       .  A
C444        C481   1.457       .  S
C444        C825   1.465       .  S
N445        N462   1.323       .  A
N445        N467   1.324       .  A
N445       Co482   2.088       .  S
C446        N471   1.334       .  A
C446        C484   1.457       .  S
C446        H491   1.081       .  S
H447        C488   1.082       .  S
C448        N472   1.330       .  A
C448        C452   1.455       .  S
C448        H477   1.081       .  S
Co449       N467   2.076       .  S
Co449       N457   2.132       .  S
Co449       N489   2.127       .  S
Co449       N465   2.064       .  S
Co449      Cl493   2.464       .  S
N450        C488   1.358       .  A
N450        N457   1.322       .  A
N450       Co451   2.138       .  S
Co451       N454   2.085       .  S
Co451       N471   2.073       .  S
Co451       N458   2.125       .  S
Co451      Cl493   2.467       .  S
C452        N490   1.351       .  A
C452        C675   1.465       .  S
N453        N460   1.322       .  A
N453        N483   1.339       .  A
N453       Co486   2.140       .  S
N454        N472   1.323       .  A
N454        N490   1.323       .  A
N455        C484   1.346       .  A
N455        N465   1.319       .  A
H456        C481   1.082       .  S
N457        N478   1.337       .  A
N458        N476   1.322       .  A
N458        N463   1.337       .  A
C459        N463   1.357       .  A
C459        C487   1.475       .  S
N460        C475   1.355       .  A
N460       Co482   2.132       .  S
C461        N489   1.355       .  A
C461        C464   1.473       .  S
C461        H495   1.082       .  S
C464        N485   1.359       .  A
N465        N471   1.321       .  A
N466        C492   1.333       .  A
N466        N468   1.322       .  A
N466       Co482   2.076       .  S
N467        C481   1.334       .  A
N468        N496   1.325       .  A
N468       Co486   2.089       .  S
H469        C492   1.081       .  S
H470        C487   1.081       .  S
N472       Co486   2.069       .  S
N473        N485   1.335       .  A
N473        N489   1.320       .  A
N473       Co482   2.123       .  S
C474        N478   1.361       .  A
C474        C488   1.478       .  S
C475        C494   1.474       .  S
C475        H479   1.081       .  S
N476        C487   1.354       .  A
N476       Co486   2.133       .  S
C480        N496   1.352       .  A
C480        C492   1.457       .  S
C480        C595   1.471       .  S
Co482      Cl493   2.466       .  S
N483        C494   1.362       .  A
C484        C635   1.457       .  S
Co486      Cl493   2.465       .  S
C497        C498   1.533       .  S
C497        C503   1.535       .  S
C497        C501   1.542       .  S
C497        C535   1.509       .  S
C498        H505   1.086       .  S
C498        C499   1.361       .  D
C499        C500   1.519       .  S
C499        C715   1.447       .  S
C500        C504   1.525       .  S
C500        C502   1.516       .  S
C500        H506   1.112       .  S
C501        H507   1.083       .  S
C501        C502   1.361       .  D
C502        C725   1.450       .  S
C503        H508   1.087       .  S
C503        C504   1.362       .  D
C504        C795   1.456       .  S
C509        C510   1.531       .  S
C509        C515   1.535       .  S
C509        C513   1.524       .  S
C509        C775   1.505       .  S
C510        H517   1.082       .  S
C510        C511   1.357       .  D
C511        C512   1.523       .  S
C511        C735   1.451       .  S
C512        C516   1.532       .  S
C512        C514   1.533       .  S
C512        H518   1.110       .  S
C513        H519   1.086       .  S
C513        C514   1.363       .  D
C514        C692   1.470       .  S
C515        H520   1.086       .  S
C515        C516   1.368       .  D
C516        C525   1.467       .  S
C521        H527   1.083       .  S
C521        C522   1.403       .  A
C521        C526   1.388       .  A
C522        C523   1.399       .  A
C523        H528   1.083       .  S
C523        C524   1.396       .  A
C524        H529   1.083       .  S
C524        C525   1.405       .  A
C525        C526   1.399       .  A
C526        H530   1.083       .  S
C531        H537   1.083       .  S
C531        C532   1.399       .  A
C531        C536   1.389       .  A
C532        C533   1.400       .  A
C533        H538   1.083       .  S
C533        C534   1.391       .  A
C534        H539   1.077       .  S
C534        C535   1.408       .  A
C535        C536   1.407       .  A
C536        H540   1.083       .  S
C541        H547   1.083       .  S
C541        C542   1.401       .  A
C541        C546   1.386       .  A
C542        C543   1.402       .  A
C543        H548   1.082       .  S
C543        C544   1.392       .  A
C544        H549   1.083       .  S
C544        C545   1.403       .  A
C545        C546   1.400       .  A
C546        H550   1.082       .  S
C551        H557   1.083       .  S
C551        C552   1.400       .  A
C551        C556   1.387       .  A
C552        C553   1.398       .  A
C553        H558   1.083       .  S
C553        C554   1.391       .  A
C554        H559   1.084       .  S
C554        C555   1.409       .  A
C555        C556   1.406       .  A
C556        H560   1.076       .  S
C561        H567   1.083       .  S
C561        C562   1.404       .  A
C561        C566   1.391       .  A
C562        C563   1.395       .  A
C563        H568   1.084       .  S
C563        C564   1.385       .  A
C564        H569   1.084       .  S
C564        C565   1.398       .  A
C565        C566   1.396       .  A
C566        H570   1.083       .  S
C571        H577   1.077   1_655  S
C571        C572   1.406       .  A
C571        C576   1.389   1_655  A
C572        C573   1.406       .  A
C573        H578   1.083       .  S
C573        C574   1.382       .  A
C574        H579   1.083       .  S
C574        C575   1.396   1_655  A
C575        C576   1.401       .  A
C576        H580   1.082       .  S
C581        H587   1.083       .  S
C581        C582   1.397       .  A
C581        C586   1.383       .  A
C582        C583   1.405       .  A
C583        H588   1.083       .  S
C583        C584   1.392       .  A
C584        H589   1.083       .  S
C584        C585   1.399       .  A
C585        C586   1.404       .  A
C586        H590   1.083   1_655  S
C591        H597   1.081       .  S
C591        C592   1.405       .  A
C591        C596   1.389       .  A
C592        C593   1.407       .  A
C593        H598   1.081       .  S
C593        C594   1.398       .  A
C594        H599   1.083       .  S
C594        C595   1.403       .  A
C595        C596   1.401       .  A
C596        H600   1.082       .  S
C601        H607   1.084       .  S
C601        C602   1.397       .  A
C601        C606   1.391       .  A
C602        C603   1.398       .  A
C603        H608   1.084       .  S
C603        C604   1.386       .  A
C604        H609   1.083       .  S
C604        C605   1.402       .  A
C605        C606   1.402       .  A
C606        H610   1.083       .  S
C611        H617   1.083       .  S
C611        C612   1.403   1_545  A
C611        C616   1.392   1_545  A
C612        C613   1.403       .  A
C613        H618   1.082       .  S
C613        C614   1.388       .  A
C614        H619   1.084       .  S
C614        C615   1.396       .  A
C615        C616   1.398       .  A
C616        H620   1.081       .  S
C621        H627   1.084       .  S
C621        C622   1.398       .  A
C621        C626   1.388       .  A
C622        C623   1.398       .  A
C623        H628   1.081       .  S
C623        C624   1.392   1_565  A
C624        H629   1.082       .  S
C624        C625   1.403   1_545  A
C625        C626   1.402       .  A
C626        H630   1.083       .  S
C631        H637   1.083       .  S
C631        C632   1.406       .  A
C631        C636   1.389       .  A
C632        C633   1.409       .  A
C633        H638   1.075       .  S
C633        C634   1.387       .  A
C634        H639   1.082       .  S
C634        C635   1.397       .  A
C635        C636   1.400       .  A
C636        H640   1.083       .  S
C641        H647   1.082       .  S
C641        C642   1.398       .  A
C641        C646   1.392       .  A
C642        C643   1.399       .  A
C643        H648   1.084       .  S
C643        C644   1.381       .  A
C644        H649   1.083       .  S
C644        C645   1.400       .  A
C645        C646   1.403       .  A
C646        H650   1.082       .  S
C651        H657   1.082       .  S
C651        C652   1.397       .  A
C651        C656   1.394       .  A
C652        C653   1.401       .  A
C653        H658   1.084       .  S
C653        C654   1.380       .  A
C654        H659   1.083   1_556  S
C654        C655   1.398       .  A
C655        C656   1.405       .  A
C656        H660   1.082       .  S
C661        H667   1.077       .  S
C661        C662   1.406       .  A
C661        C666   1.385       .  A
C662        C663   1.405       .  A
C663        H668   1.084       .  S
C663        C664   1.377   1_556  A
C664        H669   1.082       .  S
C664        C665   1.394       .  A
C665        C666   1.397   1_554  A
C666        H670   1.082       .  S
C671        H677   1.083       .  S
C671        C672   1.402       .  A
C671        C676   1.386       .  A
C672        C673   1.403       .  A
C673        H678   1.083       .  S
C673        C674   1.395       .  A
C674        H679   1.083       .  S
C674        C675   1.403       .  A
C675        C676   1.402       .  A
C676        H680   1.081       .  S
C681        H687   1.084       .  S
C681        C682   1.396       .  A
C681        C686   1.387       .  A
C682        C683   1.398       .  A
C683        H688   1.083       .  S
C683        C684   1.381       .  A
C684        H689   1.084       .  S
C684        C685   1.404       .  A
C685        C686   1.408       .  A
C686        H690   1.071       .  S
C691        H697   1.082       .  S
C691        C692   1.406       .  A
C691        C696   1.389   1_554  A
C692        C693   1.403       .  A
C693        H698   1.082       .  S
C693        C694   1.391   1_554  A
C694        H699   1.084       .  S
C694        C695   1.398       .  A
C695        C696   1.395       .  A
C696        H700   1.083   1_545  S
C701        H707   1.083       .  S
C701        C702   1.403   1_554  A
C701        C706   1.388       .  A
C702        C703   1.401       .  A
C703        H708   1.083       .  S
C703        C704   1.391   1_556  A
C704        H709   1.084   1_554  S
C704        C705   1.399       .  A
C705        C706   1.396       .  A
C706        H710   1.084       .  S
C711        H717   1.083       .  S
C711        C712   1.401   1_545  A
C711        C716   1.390       .  A
C712        C713   1.403       .  A
C713        H718   1.083       .  S
C713        C714   1.387   1_565  A
C714        H719   1.084       .  S
C714        C715   1.396       .  A
C715        C716   1.397       .  A
C716        H720   1.083       .  S
C721        H727   1.081       .  S
C721        C722   1.403       .  A
C721        C726   1.389       .  A
C722        C723   1.406       .  A
C723        H728   1.083       .  S
C723        C724   1.391       .  A
C724        H729   1.084       .  S
C724        C725   1.396       .  A
C725        C726   1.396       .  A
C726        H730   1.083       .  S
C731        H737   1.083       .  S
C731        C732   1.400   1_655  A
C731        C736   1.382   1_655  A
C732        C733   1.400   1_554  A
C733        H738   1.082       .  S
C733        C734   1.387   1_556  A
C734        H739   1.083       .  S
C734        C735   1.399       .  A
C735        C736   1.399       .  A
C736        H740   1.084       .  S
C741        H747   1.083       .  S
C741        C742   1.404       .  A
C741        C746   1.385       .  A
C742        C743   1.402   1_556  A
C743        H748   1.082       .  S
C743        C744   1.391       .  A
C744        H749   1.084       .  S
C744        C745   1.399       .  A
C745        C746   1.395   1_554  A
C746        H750   1.084       .  S
C751        H757   1.083       .  S
C751        C752   1.400       .  A
C751        C756   1.377       .  A
C752        C753   1.402   1_455  A
C753        H758   1.082       .  S
C753        C754   1.391   1_655  A
C754        H759   1.080       .  S
C754        C755   1.397       .  A
C755        C756   1.397       .  A
C756        H760   1.084       .  S
C761        H767   1.084       .  S
C761        C762   1.400       .  A
C761        C766   1.392       .  A
C762        C763   1.404       .  A
C763        H768   1.083       .  S
C763        C764   1.390       .  A
C764        H769   1.083       .  S
C764        C765   1.398       .  A
C765        C766   1.401       .  A
C766        H770   1.083       .  S
C771        H777   1.084       .  S
C771        C772   1.394   1_545  A
C771        C776   1.385       .  A
C772        C773   1.400   1_655  A
C773        H778   1.083       .  S
C773        C774   1.390   1_565  A
C774        H779   1.083       .  S
C774        C775   1.405       .  A
C775        C776   1.410   1_455  A
C776        H780   1.078       .  S
C781        H787   1.083       .  S
C781        C782   1.398   1_655  A
C781        C786   1.388   1_655  A
C782        C783   1.401       .  A
C783        H788   1.083       .  S
C783        C784   1.383       .  A
C784        H789   1.084       .  S
C784        C785   1.396       .  A
C785        C786   1.399       .  A
C786        H790   1.080       .  S
C791        H797   1.083   1_545  S
C791        C792   1.401   1_545  A
C791        C796   1.389       .  A
C792        C793   1.397   1_565  A
C793        H798   1.083       .  S
C793        C794   1.388       .  A
C794        H799   1.084       .  S
C794        C795   1.400       .  A
C795        C796   1.401       .  A
C796        H800   1.082       .  S
C801        H807   1.083       .  S
C801        C802   1.395       .  A
C801        C806   1.390   1_565  A
C802        C803   1.397       .  A
C803        H808   1.084       .  S
C803        C804   1.389   1_556  A
C804        H809   1.084       .  S
C804        C805   1.401   1_564  A
C805        C806   1.407       .  A
C806        H810   1.081       .  S
C811        H817   1.083       .  S
C811        C812   1.395       .  A
C811        C816   1.389   1_655  A
C812        C813   1.400       .  A
C813        H818   1.084       .  S
C813        C814   1.390   1_565  A
C814        H819   1.083       .  S
C814        C815   1.400   1_645  A
C815        C816   1.405       .  A
C816        H820   1.082       .  S
C821        H827   1.084       .  S
C821        C822   1.408       .  A
C821        C826   1.394       .  A
C822        C823   1.409       .  A
C823        H828   1.076       .  S
C823        C824   1.390       .  A
C824        H829   1.084       .  S
C824        C825   1.399       .  A
C825        C826   1.401       .  A
C826        H830   1.084       .  S
C831        H837   1.084       .  S
C831        C832   1.398       .  A
C831        C836   1.393   1_655  A
C832        C833   1.396       .  A
C833        H838   1.084       .  S
C833        C834   1.387   1_556  A
C834        H839   1.081       .  S
C834        C835   1.403       .  A
C835        C836   1.404   1_654  A
C836        H840   1.084       .  S
