geometry optimzed in LAMMPS
_audit_creation_date              2020-11-30 
_audit_creation_method            'lammps2cif' 
_symmetry_space_group_name_H-M    'P1' 
_symmetry_Int_Tables_number       1 
_symmetry_cell_setting            triclinic 
loop_ 
_symmetry_equiv_pos_as_xyz 
  x,y,z 
_cell_length_a                    29.795588497106014 
_cell_length_b                    29.855773151793414 
_cell_length_c                    24.572230360853286 
_cell_angle_alpha                 89.38641110194082 
_cell_angle_beta                  89.9340322092415 
_cell_angle_gamma                 121.85847223609399 
loop_ 
_atom_site_label 
_atom_site_type_symbol 
_atom_site_fract_x 
_atom_site_fract_y 
_atom_site_fract_z 
_atom_site_charge 
C1          C  0.78467593  0.52171205  0.99246528     0.01320
C2          C  0.74102415  0.52612849  0.48519553     0.01320
C3          C  0.43667597  0.16438771  0.51524714     0.01320
C4          C  0.44090193  0.21243550  0.50583529     0.01320
C5          C  0.74122775  0.16508456  0.49117261     0.01320
C6          C  0.79111297  0.20872412  0.00258624     0.01320
C7          C  0.53017397  0.76659091  0.47914957     0.01320
C8          C  0.52590680  0.71807187  0.48403188     0.01320
C9          C  0.18895013  0.42800009  0.00237846     0.01320
C10         C  0.23381494  0.42540940  0.50614501     0.01320
C11         C  0.17178551  0.72287772  0.99704949     0.01320
C12         C  0.22490098  0.76323039  0.49961214     0.01320
O13         O  0.95012994  0.37818131  0.31014404    -0.79380
O14         O  0.02587321  0.42173874  0.17583023    -0.79410
O15         O  0.85490324  0.37285065  0.20228413    -0.79420
O16         O  0.06595816  0.46223603  0.29095028    -0.79360
O17         O  0.92027288  0.36326096  0.18002371    -0.79480
O18         O  0.02964842  0.45004477  0.37136463    -0.79400
O19         O  0.08705570  0.50281031  0.19166140    -0.79380
O20         O  0.87683318  0.37874902  0.31279132    -0.79420
C21         C  0.90306036  0.35762812  0.32648710     1.10310
C22         C  0.07362946  0.45841505  0.17220545     1.10190
C23         C  0.87138662  0.34445347  0.18314691     1.10330
C24         C  0.06378639  0.44969359  0.34154596     1.10210
O25         O  0.03469554  0.53616814  0.32786600    -0.79390
O26         O  0.91300188  0.45061916  0.13180039    -0.79460
O27         O  0.91757559  0.49410631  0.30425673    -0.79400
O28         O  0.04009981  0.56235777  0.20261484    -0.79380
O29         O  0.02215841  0.51160779  0.13065356    -0.79430
O30         O  0.94046342  0.45884895  0.36583700    -0.79400
O31         O  0.10906106  0.56780441  0.28162658    -0.79350
O32         O  0.89889260  0.48712583  0.20162021    -0.79420
Co33       Co  0.99225899  0.45562357  0.31303455     1.51530
Co34       Co  0.97018785  0.43732463  0.15939746     1.51690
Co35       Co  0.89188501  0.43501538  0.25437494     1.51570
Co36       Co  0.04587492  0.51141610  0.25020355     1.51470
O37         O  0.96833729  0.45764274  0.23735179    -1.41320
C38         C  0.08425995  0.57097005  0.32190443     1.10230
C39         C  0.89601304  0.47846515  0.15183864     1.10320
C40         C  0.91879336  0.48444795  0.35344564     1.10260
C41         C  0.04219354  0.55742736  0.15125931     1.10230
O42         O  0.47642232  0.40322559  0.14351396    -0.79380
O43         O  0.39746179  0.42433746  0.33723295    -0.79410
O44         O  0.52994637  0.39303344  0.30773940    -0.79420
O45         O  0.38324088  0.44680670  0.21522975    -0.79360
O46         O  0.45491682  0.38010213  0.33651807    -0.79480
O47         O  0.41846646  0.44718058  0.13947217    -0.79400
O48         O  0.40556384  0.49631263  0.30415500    -0.79380
O49         O  0.47833165  0.36795980  0.21921571    -0.79420
C50         C  0.46955137  0.36364019  0.16956989     1.10310
C51         C  0.38221323  0.45620168  0.33532720     1.10190
C52         C  0.48701608  0.36489281  0.33472393     1.10330
C53         C  0.37780904  0.43569157  0.16603014     1.10210
O54         O  0.50777550  0.55013780  0.16873847    -0.79390
O55         O  0.54991575  0.47972464  0.35711482    -0.79460
O56         O  0.58332561  0.44055750  0.19932454    -0.79400
O57         O  0.51571441  0.56624295  0.27530297    -0.79380
O58         O  0.49158638  0.52706658  0.35464266    -0.79430
O59         O  0.57009985  0.50316435  0.17192711    -0.79400
O60         O  0.44186124  0.55507259  0.20275736    -0.79350
O61         O  0.58744616  0.50626372  0.27757946    -0.79420
Co62       Co  0.49125377  0.47380160  0.16711578     1.51530
Co63       Co  0.47375967  0.45312647  0.34004171     1.51690
Co64       Co  0.53056004  0.43917557  0.24535740     1.51570
Co65       Co  0.45228827  0.50480872  0.24106266     1.51470
O66         O  0.47482949  0.45501802  0.25583074    -1.41320
C67         C  0.48001447  0.57196731  0.16873116     1.10230
C68         C  0.59153212  0.50537422  0.32853055     1.10320
C69         C  0.59332512  0.47753714  0.16576473     1.10260
C70         C  0.51144227  0.56897653  0.32615586     1.10230
O71         O  0.52389190  0.01746955  0.13265253    -0.79380
O72         O  0.48742545  0.92467648  0.35846443    -0.79410
O73         O  0.58717004  0.09861713  0.27738382    -0.79420
O74         O  0.51163587  0.89882040  0.18277804    -0.79360
O75         O  0.56061019  0.02493868  0.32424520    -0.79480
O76         O  0.46447617  0.91049386  0.12331830    -0.79400
O77         O  0.52519209  0.91261504  0.29037697    -0.79380
O78         O  0.57830433  0.03032394  0.19977248    -0.79420
C79         C  0.57091930  0.03529576  0.14998084     1.10310
C80         C  0.51474444  0.90711941  0.34019656     1.10190
C81         C  0.59551736  0.07450098  0.31479831     1.10330
C82         C  0.49393032  0.89268295  0.13523910     1.10210
O83         O  0.37934827  0.90787919  0.18365361    -0.79390
O84         O  0.47247933  0.00388833  0.37830209    -0.79460
O85         O  0.51394230  0.07648592  0.19934983    -0.79400
O86         O  0.40913528  0.86004504  0.30527067    -0.79380
O87         O  0.40027719  0.92785980  0.31310267    -0.79430
O88         O  0.43283128  0.01379624  0.18886150    -0.79400
O89         O  0.39870567  0.84730399  0.19555968    -0.79350
O90         O  0.48400267  0.05107622  0.30434560    -0.79420
Co91       Co  0.45111623  0.96279797  0.16166226     1.51530
Co92       Co  0.47778311  0.97613260  0.31340264     1.51690
Co93       Co  0.52984059  0.03454273  0.25164360     1.51570
Co94       Co  0.46313986  0.88421027  0.24349155     1.51470
O95         O  0.47708277  0.95804598  0.23579970    -1.41320
C96         C  0.36670867  0.86063569  0.17949814     1.10230
C97         C  0.47461014  0.04333905  0.35614713     1.10320
C98         C  0.46685837  0.06242161  0.18797248     1.10260
C99         C  0.38277521  0.87959335  0.32279269     1.10230
C100        C  0.26002184  0.79007179  0.44836408    -0.04590
C101        C  0.27812304  0.84381930  0.43541083    -0.01700
C102        C  0.31576475  0.87212255  0.39333051     0.03290
C103        C  0.33579272  0.84761152  0.36086622    -0.04580
C104        C  0.31311952  0.79272328  0.36845311    -0.01690
C105        C  0.27800765  0.76486021  0.41275589     0.03280
C106        C  0.25762727  0.87211581  0.46249998     0.37930
C107        C  0.32396063  0.76356337  0.32899563     0.37920
C108        C  0.26241911  0.71035277  0.41941392     0.36350
C109        C  0.33264541  0.92697890  0.38333765     0.36350
N110        N  0.25284716  0.66738354  0.41964421    -0.38470
N111        N  0.34503664  0.97037884  0.37579536    -0.38470
N112        N  0.33158066  0.73974842  0.29746808    -0.37920
N113        N  0.24479728  0.90003622  0.97851623    -0.37920
C114        C  0.31960308  0.82443967  0.14578556    -0.04590
C115        C  0.31705890  0.78210446  0.11792220    -0.01700
C116        C  0.28445155  0.76078900  0.07190551     0.03290
C117        C  0.25326530  0.78094437  0.05321355    -0.04580
C118        C  0.25117661  0.81883635  0.08544366    -0.01690
C119        C  0.28211082  0.83814736  0.13293466     0.03280
C120        C  0.34858679  0.76054786  0.13552095     0.37930
C121        C  0.21339718  0.83417956  0.07361251     0.37920
C122        C  0.27184158  0.86804116  0.17160827     0.36350
C123        C  0.28487475  0.71841705  0.04462670     0.36350
N124        N  0.26217174  0.88987744  0.20366952    -0.38470
N125        N  0.28858582  0.68468668  0.02719497    -0.38470
N126        N  0.18149595  0.84466319  0.56695377    -0.37920
N127        N  0.37346570  0.74312213  0.14937258    -0.37920
C128        C  0.11111399  0.61278793  0.36325790    -0.04590
C129        C  0.12306914  0.59971316  0.41431724    -0.01700
C130        C  0.14650664  0.63761641  0.45479460     0.03290
C131        C  0.15542549  0.68854862  0.44743685    -0.04580
C132        C  0.14299668  0.70213597  0.39678500    -0.01690
C133        C  0.12093497  0.66425074  0.35468608     0.03280
C134        C  0.10901695  0.54684303  0.42914384     0.37930
C135        C  0.14973767  0.75349358  0.38922150     0.37920
C136        C  0.10406474  0.67672179  0.30458869     0.36350
C137        C  0.16118378  0.62376478  0.50550510     0.36350
N138        N  0.08989807  0.68663371  0.26499796    -0.38470
N139        N  0.17206645  0.61297755  0.04648728    -0.38470
N140        N  0.15498816  0.79447039  0.38295727    -0.37920
N141        N  0.09967549  0.50740890  0.44872054    -0.37920
C142        C  0.13074285  0.69702061  0.04512966    -0.04590
C143        C  0.14447346  0.69736252  0.10048878    -0.01700
C144        C  0.12075982  0.64985546  0.13084389     0.03290
C145        C  0.07195475  0.60549013  0.11471243    -0.04580
C146        C  0.05145326  0.60888355  0.06384765    -0.01690
C147        C  0.07797877  0.65629861  0.03246258     0.03280
C148        C  0.14846782  0.73841593  0.13444110     0.37930
C149        C  0.00519988  0.56299578  0.04143377     0.37920
C150        C  0.05135786  0.66237564  0.98621653     0.36350
C151        C  0.14729201  0.64976990  0.18008665     0.36350
N152        N  0.02940850  0.66680016  0.44971187    -0.38470
N153        N  0.17169232  0.65325611  0.21814551    -0.38470
N154        N  0.96889205  0.52647644  0.02261168    -0.37920
N155        N  0.14876214  0.76812444  0.16458767    -0.37920
C156        C  0.26877519  0.43523227  0.45742365    -0.04590
C157        C  0.25194234  0.40267147  0.41068209    -0.01700
C158        C  0.28848605  0.41222194  0.36850754     0.03290
C159        C  0.34253605  0.45013903  0.37531630    -0.04580
C160        C  0.35967494  0.47883556  0.42381005    -0.01690
C161        C  0.32284886  0.47543154  0.46141737     0.03280
C162        C  0.19886178  0.35702792  0.40689124     0.37930
C163        C  0.41480653  0.50730376  0.43959469     0.37920
C164        C  0.34200114  0.51511235  0.50334351     0.36350
C165        C  0.27115865  0.38092330  0.31951045     0.36350
N166        N  0.36031638  0.54863968  0.03477187    -0.38470
N167        N  0.25743692  0.35601602  0.28038804    -0.38470
N168        N  0.45737509  0.52918072  0.45648366    -0.37920
N169        N  0.15726712  0.31954372  0.40250956    -0.37920
C170        C  0.32674859  0.41747484  0.13754078    -0.04590
C171        C  0.29949266  0.44339891  0.14762527    -0.01700
C172        C  0.27026172  0.44864156  0.10552172     0.03290
C173        C  0.25503067  0.41568529  0.05891932    -0.04580
C174        C  0.27110588  0.37842996  0.05757098    -0.01690
C175        C  0.31116594  0.38363888  0.09260319     0.03280
C176        C  0.30631431  0.47027199  0.19867338     0.37930
C177        C  0.24916037  0.33637318  0.01818353     0.37920
C178        C  0.33812826  0.35635844  0.08002612     0.36350
C179        C  0.26836277  0.49586919  0.10739984     0.36350
N180        N  0.35995917  0.33533448  0.06808066    -0.38470
N181        N  0.27266983  0.53641559  0.11262875    -0.38470
N182        N  0.23214134  0.30180074  0.98795055    -0.37920
N183        N  0.31045602  0.49111650  0.23942527    -0.37920
C184        C  0.16248563  0.42726195  0.44900256    -0.04590
C185        C  0.18621688  0.46861050  0.40902734    -0.01700
C186        C  0.15494839  0.47241570  0.36788946     0.03290
C187        C  0.10021745  0.43526251  0.36599833    -0.04580
C188        C  0.07902115  0.38960027  0.39857362    -0.01690
C189        C  0.10913443  0.38599636  0.44063147     0.03280
C190        C  0.24167797  0.50934248  0.41036959     0.37930
C191        C  0.02640515  0.34531467  0.38734675     0.37920
C192        C  0.08421854  0.33856581  0.47415102     0.36350
C193        C  0.17854417  0.51662120  0.32976133     0.36350
N194        N  0.06188365  0.29916862  0.49838644    -0.38470
N195        N  0.19802798  0.55187104  0.29937932    -0.38470
N196        N  0.98527889  0.30890791  0.37783536    -0.37920
N197        N  0.28563871  0.54310445  0.40908340    -0.37920
C198        C  0.16377128  0.43527132  0.05181047    -0.04590
C199        C  0.17013821  0.48515202  0.06030113    -0.01700
C200        C  0.15006701  0.49409167  0.10790267     0.03290
C201        C  0.11118378  0.45126809  0.13875691    -0.04580
C202        C  0.10525910  0.40143703  0.13184412    -0.01690
C203        C  0.13466342  0.39462171  0.09092530     0.03280
C204        C  0.20335150  0.52969963  0.02464204     0.37930
C205        C  0.07209663  0.35847748  0.16916299     0.37920
C206        C  0.13538238  0.34650541  0.08999538     0.36350
C207        C  0.17622698  0.54660722  0.13021343     0.36350
N208        N  0.13618811  0.30816851  0.08997430    -0.38470
N209        N  0.19933892  0.58796228  0.14944610    -0.38470
N210        N  0.04609972  0.32427199  0.19928721    -0.37920
N211        N  0.23046532  0.56680528  0.99831136    -0.37920
C212        C  0.51836123  0.61723475  0.35301985    -0.04590
C213        C  0.47290051  0.61667213  0.37073817    -0.01700
C214        C  0.47556381  0.64822027  0.41434260     0.03290
C215        C  0.52497141  0.68757849  0.43488581    -0.04580
C216        C  0.57122191  0.69720845  0.40703507    -0.01690
C217        C  0.56807866  0.66035817  0.36835615     0.03280
C218        C  0.42547303  0.59190615  0.33829792     0.37930
C219        C  0.62021939  0.74734483  0.41317046     0.37920
C220        C  0.61533073  0.66809719  0.34239112     0.36350
C221        C  0.42745875  0.64491598  0.43203389     0.36350
N222        N  0.65301162  0.67418361  0.32146677    -0.38470
N223        N  0.38802088  0.64144954  0.94320189    -0.38470
N224        N  0.65914374  0.78783386  0.41729330    -0.37920
N225        N  0.38729121  0.57558899  0.31307220    -0.37920
C226        C  0.51655674  0.68826672  0.03825570    -0.04590
C227        C  0.46957897  0.66779835  0.07030359    -0.01700
C228        C  0.45978062  0.63392967  0.11598447     0.03290
C229        C  0.49523198  0.61760648  0.12958497    -0.04580
C230        C  0.54435545  0.64227804  0.10138359    -0.01690
C231        C  0.55453625  0.67640197  0.05632884     0.03280
C232        C  0.42923696  0.67900275  0.05687720     0.37930
C233        C  0.58613517  0.63411775  0.11918538     0.37920
C234        C  0.60607901  0.70031504  0.03052906     0.36350
C235        C  0.41282314  0.61630152  0.14906686     0.36350
N236        N  0.64854472  0.71803663  0.01371267    -0.38470
N237        N  0.37579952  0.60326969  0.17577230    -0.38470
N238        N  0.61963886  0.62790225  0.13295156    -0.37920
N239        N  0.39486054  0.68571476  0.04952854    -0.37920
C240        C  0.52550444  0.87153358  0.37199495    -0.04590
C241        C  0.56069022  0.88976338  0.41585195    -0.01700
C242        C  0.57715013  0.85722235  0.43859639     0.03290
C243        C  0.54855636  0.80224348  0.42807014    -0.04580
C244        C  0.51986356  0.78680260  0.37849151    -0.01690
C245        C  0.50691847  0.82058109  0.35200292     0.03280
C246        C  0.57702498  0.93994360  0.44032227     0.37930
C247        C  0.51826166  0.74713115  0.34423580     0.37920
C248        C  0.47436593  0.80234379  0.30338844     0.36350
C249        C  0.62137745  0.87952538  0.47561514     0.36350
N250        N  0.44905090  0.78743247  0.26444150    -0.38470
N251        N  0.65740927  0.89833336  0.00432674    -0.38470
N252        N  0.51747580  0.71907889  0.31159032    -0.37920
N253        N  0.58906015  0.97913360  0.46144975    -0.37920
C254        C  0.51506747  0.78977533  0.02547777    -0.04590
C255        C  0.54690340  0.81093226  0.07212282    -0.01700
C256        C  0.54053606  0.84461695  0.10727802     0.03290
C257        C  0.50271654  0.85902369  0.09604775    -0.04580
C258        C  0.47034217  0.83695868  0.04950906    -0.01690
C259        C  0.47535206  0.80160240  0.01598256     0.03280
C260        C  0.58954585  0.80204602  0.08223045     0.37930
C261        C  0.43187143  0.85067249  0.03449863     0.37920
C262        C  0.43895322  0.77724990  0.97099027     0.36350
C263        C  0.57516888  0.86577467  0.15396866     0.36350
N264        N  0.40905580  0.75784331  0.43591499    -0.38470
N265        N  0.60278582  0.88210608  0.19120432    -0.38470
N266        N  0.40141129  0.86158184  0.02161754    -0.37920
N267        N  0.62458354  0.79682032  0.09155996    -0.37920
C268        C  0.80009560  0.23001009  0.06016747    -0.04590
C269        C  0.83629674  0.22729417  0.09544699    -0.01700
C270        C  0.85399357  0.25854274  0.14301494     0.03290
C271        C  0.83554499  0.29243241  0.15575873    -0.04580
C272        C  0.79038900  0.28393547  0.12864771    -0.01690
C273        C  0.77610726  0.25757791  0.07854120     0.03280
C274        C  0.86440122  0.20270233  0.07699073     0.37930
C275        C  0.75656014  0.29946795  0.15306515     0.37920
C276        C  0.74198282  0.26613350  0.04427566     0.36350
C277        C  0.89398502  0.25861688  0.17663271     0.36350
N278        N  0.71547703  0.27679626  0.02027219    -0.38470
N279        N  0.92544877  0.25831759  0.20390833    -0.38470
N280        N  0.72633791  0.30794956  0.17208237    -0.37920
N281        N  0.88837119  0.18479267  0.06194644    -0.37920
C282        C  0.88313918  0.31643706  0.37067368    -0.04590
C283        C  0.90213686  0.33074630  0.42437858    -0.01700
C284        C  0.87744908  0.29447936  0.46815780     0.03290
C285        C  0.83420457  0.24208070  0.45877589    -0.04580
C286        C  0.83065419  0.22532338  0.40426862    -0.01690
C287        C  0.84828727  0.26237833  0.36067331     0.03280
C288        C  0.94257244  0.38438995  0.43837847     0.37930
C289        C  0.82098871  0.17350219  0.39330772     0.37740
C290        C  0.82791172  0.24413712  0.30683764     0.36350
C291        C  0.90117063  0.31329783  0.52098396     0.36350
N292        N  0.80899265  0.22790562  0.26493824    -0.38470
N293        N  0.92473398  0.33332538  0.05998511    -0.38470
N294        N  0.81548181  0.13313861  0.38319250    -0.37920
N295        N  0.97156488  0.42501170  0.45733666    -0.37920
C296        C  0.64451154  0.10266666  0.34834065    -0.04590
C297        C  0.66884456  0.15691947  0.35998047    -0.01700
C298        C  0.70817331  0.18008018  0.40042081     0.03290
C299        C  0.71868846  0.14789257  0.43447089    -0.04580
C300        C  0.69861142  0.09518875  0.41819310    -0.01690
C301        C  0.66501221  0.07438988  0.37281216     0.03280
C302        C  0.65115270  0.18869102  0.33375762     0.37930
C303        C  0.71332219  0.06215072  0.44666590     0.37920
C304        C  0.65378694  0.02516229  0.34934723     0.36350
C305        C  0.73393262  0.23629862  0.40877024     0.36350
N306        N  0.64591578  0.98656666  0.32985002    -0.38470
N307        N  0.75405982  0.28151224  0.41209138    -0.38470
N308        N  0.72428663  0.03422683  0.46733573    -0.37920
N309        N  0.63719201  0.21448351  0.31371823    -0.37920
C310        C  0.61730458  0.06966708  0.11276880    -0.04590
C311        C  0.66455926  0.06944207  0.11268593    -0.01700
C312        C  0.70578921  0.10129404  0.07451013     0.03290
C313        C  0.70062490  0.13459441  0.03626235    -0.04580
C314        C  0.65332836  0.13495496  0.03794066    -0.01690
C315        C  0.61391083  0.10453708  0.07671004     0.03280
C316        C  0.67015718  0.03514846  0.15050450     0.37930
C317        C  0.64195796  0.16431156  0.99881322     0.37920
C318        C  0.56795835  0.10810310  0.07790121     0.36350
C319        C  0.75071332  0.09518346  0.07199452     0.36350
N320        N  0.52944442  0.10795664  0.07670373    -0.38470
N321        N  0.78470631  0.08720850  0.07067843    -0.38470
N322        N  0.62864603  0.18554759  0.96936082    -0.37920
N323        N  0.67486321  0.00803183  0.18086327    -0.37920
C324        C  0.47173378  0.31497659  0.36637787    -0.04590
C325        C  0.42007575  0.28495634  0.38959872    -0.01700
C326        C  0.40954126  0.25031430  0.43374719     0.03290
C327        C  0.44730613  0.23818166  0.45049604    -0.04580
C328        C  0.49388917  0.25823216  0.41821470    -0.01690
C329        C  0.50729823  0.29840892  0.37824977     0.03280
C330        C  0.37652003  0.28862934  0.36821248     0.37930
C331        C  0.52871882  0.23867183  0.42626000     0.37920
C332        C  0.55759864  0.32238696  0.34992548     0.36350
C333        C  0.35794736  0.22560713  0.45962006     0.36350
N334        N  0.59780418  0.34115532  0.32738391    -0.38470
N335        N  0.31536890  0.20686582  0.47646648    -0.38470
N336        N  0.55680285  0.22315823  0.43121626    -0.37920
N337        N  0.34165098  0.29127953  0.35155776    -0.37920
C338        C  0.46049204  0.31669644  0.13948211    -0.04590
C339        C  0.50390664  0.31944442  0.11386550    -0.01700
C340        C  0.49685554  0.29094886  0.06645013     0.03290
C341        C  0.44636792  0.24720970  0.05350592    -0.04580
C342        C  0.40302369  0.23696604  0.08775237    -0.01690
C343        C  0.40975101  0.27383012  0.12806219     0.03280
C344        C  0.55498269  0.34577010  0.13984141     0.37930
C345        C  0.35112439  0.19037453  0.08170339     0.37920
C346        C  0.36509572  0.26694446  0.15914423     0.36350
C347        C  0.54250096  0.30895153  0.03159747     0.36350
N348        N  0.32953829  0.26161916  0.18399821    -0.38470
N349        N  0.58061964  0.32541550  0.00573617    -0.38470
N350        N  0.30832697  0.15443656  0.07914978    -0.37920
N351        N  0.59544207  0.36321359  0.16095647    -0.37920
C352        C  0.46646996  0.07891963  0.39155834    -0.04590
C353        C  0.43494222  0.09965017  0.37692206    -0.01700
C354        C  0.41994728  0.12384478  0.41688003     0.03290
C355        C  0.43705835  0.12776041  0.47163136    -0.04580
C356        C  0.45722355  0.09547188  0.48540326    -0.01690
C357        C  0.48234859  0.08304673  0.44598956     0.03280
C358        C  0.41564200  0.09409744  0.32203730     0.37930
C359        C  0.42957019  0.05358546  0.52547441     0.37920
C360        C  0.51633672  0.06427157  0.46308585     0.36350
C361        C  0.37770545  0.13233844  0.40384654     0.36350
N362        N  0.54240765  0.04753795  0.47446145    -0.38470
N363        N  0.34248358  0.13626325  0.39139609    -0.38470
N364        N  0.40762801  0.01767274  0.05487246    -0.37920
N365        N  0.39941868  0.09038739  0.27857525    -0.37920
C366        C  0.45274256  0.10085469  0.16607738    -0.04590
C367        C  0.40147817  0.08250516  0.14575350    -0.01700
C368        C  0.39498978  0.10660978  0.09912468     0.03290
C369        C  0.43981355  0.14976550  0.07365638    -0.04580
C370        C  0.48887558  0.17389223  0.10130255    -0.01690
C371        C  0.49310548  0.15242401  0.15112034     0.03280
C372        C  0.35572427  0.03709205  0.17032032     0.37930
C373        C  0.53784595  0.21035458  0.07323048     0.37920
C374        C  0.54251601  0.17903280  0.18068666     0.36350
C375        C  0.34482337  0.07968570  0.07091024     0.36350
N376        N  0.58219270  0.20052130  0.20373050    -0.38470
N377        N  0.30516181  0.05720002  0.04787599    -0.38470
N378        N  0.57888873  0.23644845  0.05282459    -0.37920
N379        N  0.31869283  0.00165312  0.19038567    -0.37920
C380        C  0.72247712  0.53686302  0.43091749    -0.04590
C381        C  0.70954260  0.50481652  0.38373653    -0.01700
C382        C  0.67468553  0.50435293  0.34398756     0.03290
C383        C  0.64399597  0.52655185  0.35549318    -0.04580
C384        C  0.65825029  0.55988358  0.40075631    -0.01690
C385        C  0.70203434  0.57049254  0.43292648     0.03280
C386        C  0.72304418  0.46521709  0.37751446     0.37930
C387        C  0.62450981  0.57825414  0.41895562     0.37920
C388        C  0.72213610  0.61279225  0.47198060     0.36350
C389        C  0.66616039  0.47457337  0.29479664     0.36350
N390        N  0.73768293  0.64717314  0.00229307    -0.38470
N391        N  0.66316337  0.45049379  0.25693987    -0.38470
N392        N  0.59717420  0.59146713  0.43607373    -0.37920
N393        N  0.73028472  0.43179477  0.36717398    -0.37920
C394        C  0.63153127  0.49195402  0.12030053    -0.04590
C395        C  0.68522698  0.53154995  0.12608063    -0.01700
C396        C  0.72081008  0.54557748  0.08165139     0.03290
C397        C  0.70402024  0.51614740  0.03274033    -0.04580
C398        C  0.64941565  0.47742755  0.02728067    -0.01690
C399        C  0.61335899  0.46852092  0.06909795     0.03280
C400        C  0.70319973  0.55986353  0.17684428     0.37930
C401        C  0.62906366  0.44516595  0.97903614     0.37920
C402        C  0.55749167  0.43809047  0.05652668     0.36350
C403        C  0.77297314  0.59256069  0.08562072     0.36350
N404        N  0.51419139  0.41483391  0.04173953    -0.38470
N405        N  0.81381731  0.63100267  0.08999369    -0.38470
N406        N  0.61096563  0.41894965  0.44120207    -0.37920
N407        N  0.71754401  0.58268123  0.21722616    -0.37920
C408        C  0.86555881  0.49549254  0.11924205    -0.04590
C409        C  0.81007403  0.46564360  0.12140653    -0.01700
C410        C  0.78060854  0.47540902  0.08355170     0.03290
C411        C  0.80699670  0.51946903  0.04724227    -0.04580
C412        C  0.86117153  0.55723956  0.05753481    -0.01690
C413        C  0.88949175  0.54599997  0.09550590     0.03280
C414        C  0.78406056  0.43222222  0.16860212     0.37930
C415        C  0.88827002  0.60778400  0.02932951     0.37920
C416        C  0.93894660  0.58837698  0.11688376     0.36350
C417        C  0.72443874  0.43770526  0.08122371     0.36350
N418        N  0.97699356  0.62313184  0.13542174    -0.38470
N419        N  0.67988788  0.40572616  0.08036760    -0.38470
N420        N  0.91088476  0.64879461  0.50807579    -0.37920
N421        N  0.76438836  0.40914071  0.20851987    -0.37920
C422        C  0.88847181  0.49751209  0.39211984    -0.04590
C423        C  0.88706997  0.54417206  0.38395384    -0.01700
C424        C  0.84999365  0.55158781  0.41254171     0.03290
C425        C  0.81292559  0.51183712  0.44814840    -0.04580
C426        C  0.81115542  0.46383434  0.45149735    -0.01690
C427        C  0.85084026  0.45850891  0.42795028     0.03280
C428        C  0.92451575  0.58525259  0.34699001     0.37930
C429        C  0.76466099  0.41709638  0.47413429     0.37920
C430        C  0.85025598  0.41158210  0.44268720     0.36350
C431        C  0.84848560  0.59879826  0.40366262     0.36350
N432        N  0.84306880  0.37273645  0.46137372    -0.38470
N433        N  0.84689867  0.63628077  0.39623722    -0.38470
N434        N  0.72739315  0.37830714  0.98883360    -0.37920
N435        N  0.95426913  0.61797370  0.31736114    -0.37920
C436        C  0.78468853  0.52173693  0.49247963     0.01320
C437        C  0.74101413  0.52610820  0.98518695     0.01320
C438        C  0.43667300  0.16438686  0.01525259     0.01320
C439        C  0.44090079  0.21243529  0.00584015     0.01320
C440        C  0.74121919  0.16510195  0.99117602     0.01320
C441        C  0.79112475  0.20870604  0.50258028     0.01320
C442        C  0.53017512  0.76659284  0.97914493     0.01320
C443        C  0.52590639  0.71807315  0.98402764     0.01320
C444        C  0.18895461  0.42800035  0.50237954     0.01320
C445        C  0.23381014  0.42540794  0.00614621     0.01320
C446        C  0.17180138  0.72288675  0.49705148     0.01320
C447        C  0.22488415  0.76322236  0.99960250     0.01320
O448        O  0.95014116  0.37819060  0.81013622    -0.79380
O449        O  0.02587865  0.42174958  0.67581171    -0.79410
O450        O  0.85491351  0.37287483  0.70227060    -0.79420
O451        O  0.06597219  0.46224060  0.79092743    -0.79360
O452        O  0.92027788  0.36327879  0.68000273    -0.79480
O453        O  0.02967351  0.45005969  0.87134299    -0.79400
O454        O  0.08706408  0.50281983  0.69164657    -0.79380
O455        O  0.87684574  0.37876220  0.81277924    -0.79420
C456        C  0.90307054  0.35763909  0.82647655     1.10310
C457        C  0.07363610  0.45842405  0.67219176     1.10190
C458        C  0.87139270  0.34447651  0.68312565     1.10330
C459        C  0.06380550  0.44970144  0.84152286     1.10210
O460        O  0.03470865  0.53617710  0.82785008    -0.79390
O461        O  0.91301615  0.45064661  0.63179546    -0.79460
O462        O  0.91759899  0.49411991  0.80426083    -0.79400
O463        O  0.04011306  0.56237034  0.70260879    -0.79380
O464        O  0.02217079  0.51162404  0.63064467    -0.79430
O465        O  0.94048239  0.45885670  0.86583795    -0.79400
O466        O  0.10907625  0.56780994  0.78161456    -0.79350
O467        O  0.89891857  0.48715448  0.70162227    -0.79420
Co468      Co  0.99227280  0.45563356  0.81302316     1.51530
Co469      Co  0.97019728  0.43734209  0.65938423     1.51690
Co470      Co  0.89190171  0.43503433  0.75436958     1.51570
Co471      Co  0.04588794  0.51142471  0.75019145     1.51470
O472        O  0.96834934  0.45765331  0.73734194    -1.41320
C473        C  0.08427378  0.57097587  0.82189108     1.10230
C474        C  0.89603489  0.47849672  0.65183984     1.10320
C475        C  0.91881425  0.48445830  0.85344997     1.10260
C476        C  0.04220597  0.55744209  0.65125276     1.10230
O477        O  0.47642201  0.40322350  0.64351288    -0.79380
O478        O  0.39746032  0.42433384  0.83723710    -0.79410
O479        O  0.52994210  0.39302693  0.80773754    -0.79420
O480        O  0.38323938  0.44680164  0.71523105    -0.79360
O481        O  0.45491462  0.38009856  0.83651902    -0.79480
O482        O  0.41846673  0.44717919  0.63947325    -0.79400
O483        O  0.40556079  0.49630751  0.80415660    -0.79380
O484        O  0.47832281  0.36795327  0.71921483    -0.79420
C485        C  0.46954586  0.36363566  0.66956837     1.10310
C486        C  0.38221099  0.45619740  0.83533015     1.10190
C487        C  0.48701276  0.36488800  0.83472399     1.10330
C488        C  0.37780874  0.43568798  0.66603115     1.10210
O489        O  0.50777485  0.55013526  0.66874187    -0.79390
O490        O  0.54991477  0.47972082  0.85711253    -0.79460
O491        O  0.58331869  0.44054947  0.69932067    -0.79400
O492        O  0.51571170  0.56623878  0.77530451    -0.79380
O493        O  0.49158477  0.52706307  0.85464441    -0.79430
O494        O  0.57009845  0.50316149  0.67192916    -0.79400
O495        O  0.44185885  0.55506818  0.70275868    -0.79350
O496        O  0.58744217  0.50625616  0.77757542    -0.79420
Co497      Co  0.49125304  0.47379924  0.66711729     1.51530
Co498      Co  0.47375834  0.45312303  0.84004287     1.51690
Co499      Co  0.53055433  0.43916835  0.74535556     1.51570
Co500      Co  0.45228572  0.50480423  0.74106422     1.51470
O501        O  0.47482669  0.45501375  0.75583188    -1.41320
C502        C  0.48001328  0.57196415  0.66873374     1.10230
C503        C  0.59152990  0.50536780  0.82852603     1.10320
C504        C  0.59332227  0.47753325  0.66576491     1.10260
C505        C  0.51143959  0.56897273  0.82615726     1.10230
O506        O  0.52389265  0.01747217  0.63265132    -0.79380
O507        O  0.48744427  0.92469534  0.85846821    -0.79410
O508        O  0.58717102  0.09863685  0.77737872    -0.79420
O509        O  0.51163496  0.89882428  0.68278103    -0.79360
O510        O  0.56062093  0.02496214  0.82424280    -0.79480
O511        O  0.46447165  0.91049253  0.62332232    -0.79400
O512        O  0.52520344  0.91263147  0.79037597    -0.79380
O513        O  0.57830621  0.03033427  0.69977357    -0.79420
C514        C  0.57092046  0.03529995  0.64998047     1.10310
C515        C  0.51476025  0.90713633  0.84019625     1.10190
C516        C  0.59552338  0.07452647  0.81479493     1.10330
C517        C  0.49392614  0.89268210  0.63524325     1.10210
O518        O  0.37934559  0.90788235  0.68365610    -0.79390
O519        O  0.47249213  0.00390219  0.87830505    -0.79460
O520        O  0.51394156  0.07649089  0.69934608    -0.79400
O521        O  0.40914757  0.86005840  0.80528686    -0.79380
O522        O  0.40028436  0.92786931  0.81312260    -0.79430
O523        O  0.43283104  0.01379985  0.68886049    -0.79400
O524        O  0.39870473  0.84730919  0.69557585    -0.79350
O525        O  0.48400394  0.05108560  0.80434781    -0.79420
Co526      Co  0.45111557  0.96280073  0.66166411     1.51530
Co527      Co  0.47779188  0.97614617  0.81340764     1.51690
Co528      Co  0.52984263  0.03455436  0.75164413     1.51570
Co529      Co  0.46314498  0.88422041  0.74349961     1.51470
O530        O  0.47708528  0.95805489  0.73580379    -1.41320
C531        C  0.36670567  0.86063761  0.67951176     1.10230
C532        C  0.47461631  0.04334960  0.85615044     1.10320
C533        C  0.46685747  0.06242518  0.68796958     1.10260
C534        C  0.38278673  0.87960405  0.82281445     1.10230
C535        C  0.25999488  0.79005599  0.94834835    -0.04590
C536        C  0.27805785  0.84378743  0.93537029    -0.01700
C537        C  0.31574619  0.87211391  0.89333360     0.03290
C538        C  0.33580257  0.84761625  0.86088675    -0.04580
C539        C  0.31313670  0.79272796  0.86847231    -0.01690
C540        C  0.27801275  0.76485751  0.91276446     0.03280
C541        C  0.25742319  0.87201211  0.96234747     0.37930
C542        C  0.32399554  0.76357410  0.82902426     0.37920
C543        C  0.26242168  0.71034926  0.91941974     0.36350
C544        C  0.33264047  0.92697620  0.88336533     0.36350
N545        N  0.25284709  0.66737913  0.91964707    -0.38470
N546        N  0.34504459  0.97038238  0.87584282    -0.38470
N547        N  0.33162724  0.73976192  0.79750407    -0.37920
N548        N  0.24514626  0.90022313  0.47876374    -0.37920
C549        C  0.31959611  0.82443311  0.64580744    -0.04590
C550        C  0.31706098  0.78210358  0.61794033    -0.01700
C551        C  0.28446188  0.76079272  0.57191783     0.03290
C552        C  0.25326922  0.78094133  0.55323001    -0.04580
C553        C  0.25115713  0.81881259  0.58547252    -0.01690
C554        C  0.28209315  0.83812893  0.63296181     0.03280
C555        C  0.34859219  0.76055071  0.63553869     0.37930
C556        C  0.21336872  0.83414383  0.57363523     0.37920
C557        C  0.27182359  0.86802470  0.67163171     0.36350
C558        C  0.28489923  0.71843304  0.54462746     0.36350
N559        N  0.26215528  0.88986590  0.70368834    -0.38470
N560        N  0.28861808  0.68471135  0.52718379    -0.38470
N561        N  0.18152521  0.84470500  0.06696340    -0.37920
N562        N  0.37347324  0.74312713  0.64938957    -0.37920
C563        C  0.11112500  0.61279126  0.86324544    -0.04590
C564        C  0.12307934  0.59971501  0.91430411    -0.01700
C565        C  0.14650275  0.63761301  0.95478763     0.03290
C566        C  0.15541120  0.68854148  0.94743415    -0.04580
C567        C  0.14297932  0.70212850  0.89678358    -0.01690
C568        C  0.12093095  0.66424856  0.85467973     0.03280
C569        C  0.10903908  0.54684732  0.92912413     0.37930
C570        C  0.14969421  0.75347546  0.88922687     0.37920
C571        C  0.10405798  0.67671779  0.80458294     0.36350
C572        C  0.16117206  0.62375735  0.00550075     0.36350
N573        N  0.08988914  0.68662806  0.76499279    -0.38470
N574        N  0.17208788  0.61299115  0.54648941    -0.38470
N575        N  0.15491735  0.79444045  0.88296236    -0.37920
N576        N  0.09970636  0.50741503  0.94869776    -0.37920
C577        C  0.13075340  0.69703388  0.54512776    -0.04590
C578        C  0.14447748  0.69737742  0.60048942    -0.01700
C579        C  0.12077359  0.64986763  0.63083655     0.03290
C580        C  0.07196614  0.60550448  0.61470704    -0.04580
C581        C  0.05146236  0.60889929  0.56384378    -0.01690
C582        C  0.07798928  0.65631418  0.53245859     0.03280
C583        C  0.14841558  0.73840423  0.63444505     0.37930
C584        C  0.00520611  0.56301337  0.54143133     0.37920
C585        C  0.05137174  0.66239222  0.48620996     0.36350
C586        C  0.14730754  0.64978345  0.68007821     0.36350
N587        N  0.02939175  0.66678274  0.94972073    -0.38470
N588        N  0.17170764  0.65327059  0.71813757    -0.38470
N589        N  0.96889582  0.52649581  0.52261002    -0.37920
N590        N  0.14867191  0.76809691  0.66458640    -0.37920
C591        C  0.26877179  0.43522953  0.95742582    -0.04590
C592        C  0.25193925  0.40266864  0.91068424    -0.01700
C593        C  0.28848335  0.41221847  0.86851014     0.03290
C594        C  0.34253351  0.45013490  0.87531929    -0.04580
C595        C  0.35967222  0.47883065  0.92381357    -0.01690
C596        C  0.32284605  0.47542735  0.96142057     0.03280
C597        C  0.19885847  0.35702550  0.90689305     0.37930
C598        C  0.41480376  0.50729785  0.93959847     0.37920
C599        C  0.34199882  0.51510770  0.00334726     0.36350
C600        C  0.27115612  0.38091974  0.81951313     0.36350
N601        N  0.36031880  0.54864494  0.53476741    -0.38470
N602        N  0.25743469  0.35601241  0.78039074    -0.38470
N603        N  0.45737246  0.52917408  0.95648703    -0.37920
N604        N  0.15726352  0.31954167  0.90251142    -0.37920
C605        C  0.32674920  0.41747138  0.63754117    -0.04590
C606        C  0.29949342  0.44339542  0.64762574    -0.01700
C607        C  0.27026623  0.44864153  0.60552079     0.03290
C608        C  0.25503649  0.41568684  0.55891713    -0.04580
C609        C  0.27111109  0.37843114  0.55756797    -0.01690
C610        C  0.31116923  0.38363811  0.59260155     0.03280
C611        C  0.30631317  0.47026662  0.69867483     0.37930
C612        C  0.24916707  0.33637597  0.51817872     0.37920
C613        C  0.33813337  0.35635977  0.58002301     0.36350
C614        C  0.26837063  0.49587097  0.60739961     0.36350
N615        N  0.35996600  0.33533796  0.56807595    -0.38470
N616        N  0.27268034  0.53641844  0.61262962    -0.38470
N617        N  0.23214935  0.30180467  0.48794441    -0.37920
N618        N  0.31045364  0.49110999  0.73942721    -0.37920
C619        C  0.16248635  0.42726501  0.94899799    -0.04590
C620        C  0.18622420  0.46861263  0.90902161    -0.01700
C621        C  0.15496295  0.47241669  0.86787391     0.03290
C622        C  0.10023236  0.43526460  0.86597498    -0.04580
C623        C  0.07902992  0.38960388  0.89855374    -0.01690
C624        C  0.10913578  0.38600063  0.94062058     0.03280
C625        C  0.24168408  0.50934651  0.91037353     0.37930
C626        C  0.02641262  0.34532114  0.88732510     0.37920
C627        C  0.08421238  0.33857227  0.97414349     0.36350
C628        C  0.17856401  0.51662225  0.82974580     0.36350
N629        N  0.06187139  0.29917694  0.99838152    -0.38470
N630        N  0.19805071  0.55187215  0.79936396    -0.38470
N631        N  0.98528422  0.30891757  0.87781346    -0.37920
N632        N  0.28564417  0.54311028  0.90909489    -0.37920
C633        C  0.16378025  0.43527517  0.55181151    -0.04590
C634        C  0.17015012  0.48515740  0.56030025    -0.01700
C635        C  0.15007920  0.49409835  0.60790036     0.03290
C636        C  0.11119190  0.45127505  0.63875127    -0.04580
C637        C  0.10526452  0.40144281  0.63184112    -0.01690
C638        C  0.13467079  0.39462633  0.59092642     0.03280
C639        C  0.20336519  0.52970471  0.52464133     0.37930
C640        C  0.07209488  0.35848270  0.66915661     0.37920
C641        C  0.13539058  0.34651040  0.59000123     0.36350
C642        C  0.17624108  0.54661370  0.63021235     0.36350
N643        N  0.13619743  0.30817408  0.58998457    -0.38470
N644        N  0.19935342  0.58796813  0.64944646    -0.38470
N645        N  0.04609089  0.32427667  0.69927759    -0.37920
N646        N  0.23048046  0.56681099  0.49831199    -0.37920
C647        C  0.51835743  0.61723085  0.85302045    -0.04590
C648        C  0.47289631  0.61666556  0.87074246    -0.01700
C649        C  0.47556117  0.64821607  0.91434505     0.03290
C650        C  0.52496957  0.68757830  0.93488263    -0.04580
C651        C  0.57121888  0.69720969  0.90702830    -0.01690
C652        C  0.56807493  0.66035835  0.86835038     0.03280
C653        C  0.42546688  0.59189713  0.83830519     0.37930
C654        C  0.62021603  0.74734674  0.91316189     0.37920
C655        C  0.61532605  0.66809973  0.84238067     0.36350
C656        C  0.42745653  0.64491192  0.93203773     0.36350
N657        N  0.65300627  0.67418819  0.82145270    -0.38470
N658        N  0.38802256  0.64145279  0.44319733    -0.38470
N659        N  0.65914009  0.78783615  0.91728387    -0.37920
N660        N  0.38728339  0.57557867  0.81308203    -0.37920
C661        C  0.51655708  0.68826496  0.53825953    -0.04590
C662        C  0.46957879  0.66779574  0.57030658    -0.01700
C663        C  0.45978044  0.63392743  0.61598773     0.03290
C664        C  0.49523150  0.61760393  0.62958823    -0.04580
C665        C  0.54435536  0.64227595  0.60138755    -0.01690
C666        C  0.55453690  0.67640091  0.55633353     0.03280
C667        C  0.42923619  0.67899886  0.55687897     0.37930
C668        C  0.58613485  0.63411532  0.61918951     0.37920
C669        C  0.60608082  0.70031590  0.53053607     0.36350
C670        C  0.41282379  0.61630062  0.64907103     0.36350
N671        N  0.64854763  0.71803874  0.51372235    -0.38470
N672        N  0.37580121  0.60326997  0.67577775    -0.38470
N673        N  0.61963842  0.62789964  0.63295573    -0.37920
N674        N  0.39485921  0.68570982  0.54952957    -0.37920
C675        C  0.52551849  0.87154685  0.87199065    -0.04590
C676        C  0.56070201  0.88977179  0.91584931    -0.01700
C677        C  0.57715594  0.85722586  0.93859396     0.03290
C678        C  0.54855782  0.80224691  0.92806632    -0.04580
C679        C  0.51986522  0.78680955  0.87848725    -0.01690
C680        C  0.50692947  0.82059442  0.85199631     0.03280
C681        C  0.57704121  0.93995298  0.94031997     0.37930
C682        C  0.51824330  0.74712457  0.84423786     0.37920
C683        C  0.47438209  0.80236306  0.80337798     0.36350
C684        C  0.62138286  0.87952488  0.97561302     0.36350
N685        N  0.44907176  0.78745584  0.76442767    -0.38470
N686        N  0.65740386  0.89833647  0.50432885    -0.38470
N687        N  0.51744201  0.71906246  0.81159507    -0.37920
N688        N  0.58907856  0.97914376  0.96144699    -0.37920
C689        C  0.51506532  0.78977339  0.52548235    -0.04590
C690        C  0.54690060  0.81093074  0.57212777    -0.01700
C691        C  0.54053135  0.84461401  0.60728374     0.03290
C692        C  0.50271174  0.85902076  0.59605305    -0.04580
C693        C  0.47033794  0.83695516  0.54951403    -0.01690
C694        C  0.47534910  0.80159951  0.51598725     0.03280
C695        C  0.58954437  0.80204638  0.58223495     0.37930
C696        C  0.43186621  0.85066761  0.53450370     0.37920
C697        C  0.43895061  0.77724672  0.47099480     0.36350
C698        C  0.57516174  0.86576934  0.65397630     0.36350
N699        N  0.40905844  0.75784659  0.93591043    -0.38470
N700        N  0.60277672  0.88209840  0.69121360    -0.38470
N701        N  0.40140524  0.86157587  0.52162268    -0.37920
N702        N  0.62458303  0.79682206  0.59156378    -0.37920
C703        C  0.80010476  0.23001230  0.56015375    -0.04590
C704        C  0.83628321  0.22728549  0.59545933    -0.01700
C705        C  0.85398329  0.25855212  0.64301546     0.03290
C706        C  0.83554936  0.29245955  0.65573116    -0.04580
C707        C  0.79041094  0.28397823  0.62859388    -0.01690
C708        C  0.77613402  0.25760672  0.57849481     0.03280
C709        C  0.86436889  0.20266213  0.57704052     0.37930
C710        C  0.75659432  0.29954474  0.65297310     0.37920
C711        C  0.74202789  0.26616777  0.54420543     0.36350
C712        C  0.89396414  0.25862421  0.67665078     0.36350
N713        N  0.71553612  0.27683808  0.52018578    -0.38470
N714        N  0.92542090  0.25832551  0.70393901    -0.38470
N715        N  0.72637685  0.30805200  0.67195394    -0.37920
N716        N  0.88833004  0.18473226  0.56202786    -0.37920
C717        C  0.88314539  0.31645081  0.87066641    -0.04590
C718        C  0.90214031  0.33076352  0.92437030    -0.01700
C719        C  0.87742510  0.29451260  0.96815867     0.03290
C720        C  0.83418850  0.24210805  0.95878056    -0.04580
C721        C  0.83064731  0.22534435  0.90427601    -0.01690
C722        C  0.84828096  0.26239320  0.86067482     0.03280
C723        C  0.94261690  0.38439602  0.93835643     0.37930
C724        C  0.82099029  0.17352488  0.89332507     0.37740
C725        C  0.82789875  0.24414772  0.80684190     0.36350
C726        C  0.90108631  0.31337266  0.02100006     0.36350
N727        N  0.80897545  0.22791658  0.76494383    -0.38470
N728        N  0.92486499  0.33320748  0.55995900    -0.38470
N729        N  0.81549152  0.13316326  0.88321762    -0.37920
N730        N  0.97163635  0.42500693  0.95732025    -0.37920
C731        C  0.64451930  0.10269864  0.84833620    -0.04590
C732        C  0.66885032  0.15695261  0.85998072    -0.01700
C733        C  0.70817414  0.18011176  0.90042818     0.03290
C734        C  0.71868532  0.14791825  0.93447341    -0.04580
C735        C  0.69861432  0.09521757  0.91819026    -0.01690
C736        C  0.66502076  0.07442215  0.87280638     0.03280
C737        C  0.65115886  0.18872368  0.83375854     0.37930
C738        C  0.71332291  0.06217832  0.94666497     0.37920
C739        C  0.65379770  0.02519524  0.84934102     0.36350
C740        C  0.73393162  0.23633053  0.90880240     0.36350
N741        N  0.64592777  0.98659978  0.82984451    -0.38470
N742        N  0.75407763  0.28154401  0.91217082    -0.38470
N743        N  0.72428653  0.03425529  0.96733848    -0.37920
N744        N  0.63719697  0.21451506  0.81371893    -0.37920
C745        C  0.61730713  0.06966591  0.61276709    -0.04590
C746        C  0.66455671  0.06943143  0.61268372    -0.01700
C747        C  0.70578858  0.10127825  0.57450762     0.03290
C748        C  0.70063371  0.13458648  0.53626227    -0.04580
C749        C  0.65334352  0.13495901  0.53794309    -0.01690
C750        C  0.61392131  0.10454118  0.57670926     0.03280
C751        C  0.67014665  0.03513206  0.65050137     0.37930
C752        C  0.64198234  0.16432475  0.49881866     0.37920
C753        C  0.56797205  0.10811256  0.57789834     0.36350
C754        C  0.75070275  0.09515210  0.57198805     0.36350
N755        N  0.52946141  0.10797227  0.57670047    -0.38470
N756        N  0.78468564  0.08716242  0.57066890    -0.38470
N757        N  0.62867525  0.18556596  0.46936750    -0.37920
N758        N  0.67484670  0.00801107  0.68085941    -0.37920
C759        C  0.47173016  0.31497247  0.86637938    -0.04590
C760        C  0.42007303  0.28495446  0.88960282    -0.01700
C761        C  0.40953931  0.25031362  0.93375229     0.03290
C762        C  0.44730394  0.23818047  0.95050040    -0.04580
C763        C  0.49388530  0.25822832  0.91821677    -0.01690
C764        C  0.50729361  0.29840340  0.87825010     0.03280
C765        C  0.37651731  0.28862818  0.86821792     0.37930
C766        C  0.52871383  0.23866662  0.92626091     0.37920
C767        C  0.55759192  0.32237773  0.84992222     0.36350
C768        C  0.35794593  0.22560707  0.95962619     0.36350
N769        N  0.59779565  0.34114266  0.82737766    -0.38470
N770        N  0.31536777  0.20686594  0.97647342    -0.38470
N771        N  0.55679710  0.22315204  0.93121595    -0.37920
N772        N  0.34164829  0.29127897  0.85156421    -0.37920
C773        C  0.46048661  0.31669210  0.63948005    -0.04590
C774        C  0.50390199  0.31943958  0.61386639    -0.01700
C775        C  0.49685335  0.29094739  0.56644912     0.03290
C776        C  0.44636646  0.24720862  0.55350170    -0.04580
C777        C  0.40302070  0.23696350  0.58774668    -0.01690
C778        C  0.40974604  0.27382652  0.62805709     0.03280
C779        C  0.55497473  0.34575831  0.63984881     0.37930
C780        C  0.35112222  0.19037121  0.58169621     0.37920
C781        C  0.36508945  0.26694005  0.65913720     0.36350
C782        C  0.54250055  0.30895363  0.53159830     0.36350
N783        N  0.32953106  0.26161426  0.68398974    -0.38470
N784        N  0.58062102  0.32542097  0.50573925    -0.38470
N785        N  0.30832546  0.15443229  0.57914133    -0.37920
N786        N  0.59543035  0.36319563  0.66097033    -0.37920
C787        C  0.46647142  0.07892533  0.89156369    -0.04590
C788        C  0.43494518  0.09965708  0.87692546    -0.01700
C789        C  0.41994557  0.12384727  0.91688374     0.03290
C790        C  0.43705153  0.12775806  0.97163655    -0.04580
C791        C  0.45721173  0.09546574  0.98540907    -0.01690
C792        C  0.48234115  0.08304376  0.94599787     0.03280
C793        C  0.41565028  0.09410881  0.82203854     0.37930
C794        C  0.42955157  0.05357603  0.02547562     0.37920
C795        C  0.51632179  0.06426079  0.96309875     0.36350
C796        C  0.37770390  0.13234051  0.90384801     0.36350
N797        N  0.54238503  0.04751897  0.97447719    -0.38470
N798        N  0.34248248  0.13626534  0.89139563    -0.38470
N799        N  0.40765179  0.01768425  0.55487456    -0.37920
N800        N  0.39943158  0.09040163  0.77857458    -0.37920
C801        C  0.45274107  0.10085692  0.66607357    -0.04590
C802        C  0.40147704  0.08250608  0.64574819    -0.01700
C803        C  0.39498993  0.10660930  0.59911750     0.03290
C804        C  0.43981431  0.14976588  0.57365079    -0.04580
C805        C  0.48887528  0.17389401  0.60129881    -0.01690
C806        C  0.49310402  0.15242628  0.65111708     0.03280
C807        C  0.35572326  0.03709140  0.67031366     0.37930
C808        C  0.53784641  0.21035783  0.57322856     0.37920
C809        C  0.54251365  0.17903591  0.68068506     0.36350
C810        C  0.34482510  0.07968353  0.57090034     0.36350
N811        N  0.58218974  0.20052478  0.70372997    -0.38470
N812        N  0.30516473  0.05719686  0.54786413    -0.38470
N813        N  0.57888991  0.23645261  0.55282434    -0.37920
N814        N  0.31869260  0.00164988  0.69037717    -0.37920
C815        C  0.72246750  0.53684332  0.93091098    -0.04590
C816        C  0.70952699  0.50479179  0.88373418    -0.01700
C817        C  0.67467636  0.50433516  0.84398250     0.03290
C818        C  0.64399404  0.52654272  0.85548538    -0.04580
C819        C  0.65825313  0.55987789  0.90074610    -0.01690
C820        C  0.70203417  0.57048071  0.93291750     0.03280
C821        C  0.72301063  0.46517774  0.87752482     0.37930
C822        C  0.62451944  0.57825743  0.91894262     0.37920
C823        C  0.72214108  0.61278110  0.97197127     0.36350
C824        C  0.66614993  0.47455463  0.79479227     0.36350
N825        N  0.73767344  0.64718385  0.50230239    -0.38470
N826        N  0.66315212  0.45047444  0.75693575    -0.38470
N827        N  0.59718922  0.59147764  0.93605926    -0.37920
N828        N  0.73023805  0.43174385  0.86719931    -0.37920
C829        C  0.63153158  0.49195442  0.62030343    -0.04590
C830        C  0.68522484  0.53155643  0.62608615    -0.01700
C831        C  0.72081034  0.54559152  0.58165805     0.03290
C832        C  0.70402635  0.51616256  0.53274611    -0.04580
C833        C  0.64942414  0.47743615  0.52728382    -0.01690
C834        C  0.61336383  0.46852203  0.56909980     0.03280
C835        C  0.70319271  0.55986636  0.67685229     0.37930
C836        C  0.62907947  0.44517463  0.47903854     0.37920
C837        C  0.55749721  0.43808479  0.55652646     0.36350
C838        C  0.77296982  0.59257927  0.58563014     0.36350
N839        N  0.51419720  0.41482342  0.54173877    -0.38470
N840        N  0.81381089  0.63102458  0.59000513    -0.38470
N841        N  0.61094253  0.41894072  0.94120102    -0.37920
N842        N  0.71753304  0.58268055  0.71723650    -0.37920
C843        C  0.86557919  0.49552704  0.61925125    -0.04590
C844        C  0.81009516  0.46568161  0.62142641    -0.01700
C845        C  0.78062566  0.47544240  0.58357274     0.03290
C846        C  0.80701049  0.51949907  0.54725794    -0.04580
C847        C  0.86118535  0.55727228  0.55754800    -0.01690
C848        C  0.88951028  0.54603365  0.59551395     0.03280
C849        C  0.78408939  0.43227054  0.66863083     0.37930
C850        C  0.88827806  0.60781986  0.52934894     0.37920
C851        C  0.93896809  0.58841075  0.61688649     0.36350
C852        C  0.72445507  0.43774039  0.58125755     0.36350
N853        N  0.97701772  0.62316597  0.63542003    -0.38470
N854        N  0.67990338  0.40576251  0.58041503    -0.38470
N855        N  0.91088011  0.64875501  0.00804890    -0.37920
N856        N  0.76442579  0.40919565  0.70855428    -0.37920
C857        C  0.88849423  0.49752553  0.89212500    -0.04590
C858        C  0.88705696  0.54416438  0.88392986    -0.01700
C859        C  0.84997339  0.55157082  0.91251689     0.03290
C860        C  0.81291479  0.51181913  0.94812905    -0.04580
C861        C  0.81117109  0.46383081  0.95149116    -0.01690
C862        C  0.85088896  0.45853574  0.92798513     0.03280
C863        C  0.92447713  0.58523672  0.84694248     0.37930
C864        C  0.76468576  0.41707975  0.97412070     0.37920
C865        C  0.85038347  0.41167304  0.94283612     0.36350
C866        C  0.84845096  0.59877304  0.90363430     0.36350
N867        N  0.84324541  0.37288467  0.96163380    -0.38470
N868        N  0.84685363  0.63624955  0.89620705    -0.38470
N869        N  0.72735784  0.37833476  0.48885087    -0.37920
N870        N  0.95420811  0.61795115  0.81729385    -0.37920
loop_ 
_geom_bond_atom_site_label_1 
_geom_bond_atom_site_label_2 
_geom_bond_distance 
_geom_bond_site_symmetry_2 
_ccdc_geom_bond_type 
C1          C411   1.518   1_556  S
C1          C860   1.500       .  S
C1          C437   1.386       .  D
C2          C380   1.538       .  S
C2          C832   1.521       .  S
C2          C436   1.386       .  D
C3          C355   1.544       .  S
C3          C804   1.513       .  S
C3            C4   1.389       .  D
C4          C327   1.516       .  S
C4          C776   1.525       .  S
C5          C299   1.520       .  S
C5          C748   1.527       .  S
C5          C441   1.396       .  D
C6          C268   1.523       .  S
C6          C720   1.557   1_554  S
C6          C440   1.396   1_554  D
C7          C243   1.537       .  S
C7          C689   1.524       .  S
C7            C8   1.390       .  D
C8          C215   1.512       .  S
C8          C661   1.535       .  S
C9          C198   1.504       .  S
C9          C619   1.526   1_554  S
C9          C445   1.382       .  D
C10         C156   1.507       .  S
C10         C608   1.534       .  S
C10         C444   1.382       .  D
C11         C142   1.571   1_556  S
C11         C566   1.508       .  S
C11         C447   1.396       .  D
C12         C100   1.553       .  S
C12         C552   1.508       .  S
C12         C446   1.396       .  D
O13          C21   1.261       .  A
O13         Co33   1.966       .  S
O14          C22   1.259       .  A
O14         Co34   1.986   1_455  S
O15          C23   1.276       .  A
O15         Co35   2.048       .  S
O16          C24   1.286       .  A
O16         Co36   2.101       .  S
O17          C23   1.256       .  A
O17         Co34   1.965       .  S
O18          C24   1.257       .  A
O18         Co33   1.876   1_455  S
O19          C22   1.265       .  A
O19         Co36   1.994       .  S
O20          C21   1.280       .  A
O20         Co35   2.058       .  S
C21         C282   1.498       .  S
C22         C201   1.492       .  S
C23         C271   1.510       .  S
C24         C187   1.488       .  S
O25          C38   1.288       .  A
O25         Co33   2.079   1_455  S
O26          C39   1.282       .  A
O26         Co34   2.057       .  S
O27          C40   1.245       .  A
O27         Co35   1.955       .  S
O28          C41   1.277       .  A
O28         Co36   1.987       .  S
O29          C41   1.280       .  A
O29         Co34   2.038   1_455  S
O30          C40   1.269       .  A
O30         Co33   2.057       .  S
O31          C38   1.268       .  A
O31         Co36   1.913       .  S
O32          C39   1.247       .  A
O32         Co35   1.938       .  S
Co33         O37   2.004       .  S
Co34         O37   2.025       .  S
Co35         O37   2.046       .  S
Co36         O37   2.028   1_455  S
C38         C128   1.485       .  S
C39         C408   1.484       .  S
C40         C422   1.500       .  S
C41         C145   1.510       .  S
O42          C50   1.256       .  A
O42         Co62   2.004       .  S
O43          C51   1.253       .  A
O43         Co63   1.962       .  S
O44          C52   1.278       .  A
O44         Co64   2.044       .  S
O45          C53   1.245       .  A
O45         Co65   1.975       .  S
O46          C52   1.258       .  A
O46         Co63   1.946       .  S
O47          C53   1.251       .  A
O47         Co62   1.998       .  S
O48          C51   1.267       .  A
O48         Co65   2.005       .  S
O49          C50   1.242       .  A
O49         Co64   1.973       .  S
C50         C338   1.486       .  S
C51         C159   1.471       .  S
C52         C324   1.514       .  S
C53         C170   1.496       .  S
O54          C67   1.295       .  A
O54         Co62   2.063       .  S
O55          C68   1.265       .  A
O55         Co63   2.016       .  S
O56          C69   1.273       .  A
O56         Co64   1.918       .  S
O57          C70   1.264       .  A
O57         Co65   2.005       .  S
O58          C70   1.267       .  A
O58         Co63   2.016       .  S
O59          C69   1.284       .  A
O59         Co62   2.032       .  S
O60          C67   1.276       .  A
O60         Co65   1.923       .  S
O61          C68   1.259       .  A
O61         Co64   1.991       .  S
Co62         O66   2.233       .  S
Co63         O66   2.069       .  S
Co64         O66   1.969       .  S
Co65         O66   1.958       .  S
C67         C229   1.519       .  S
C68         C383   1.500       .  S
C69         C394   1.483       .  S
C70         C212   1.504       .  S
O71          C79   1.283       .  A
O71         Co91   2.027   1_545  S
O72          C80   1.262       .  A
O72         Co92   2.025       .  S
O73          C81   1.265       .  A
O73         Co93   1.886       .  S
O74          C82   1.257       .  A
O74         Co94   1.954       .  S
O75          C81   1.301       .  A
O75         Co92   2.121   1_545  S
O76          C82   1.276       .  A
O76         Co91   2.042       .  S
O77          C80   1.250       .  A
O77         Co94   1.958       .  S
O78          C79   1.264       .  A
O78         Co93   1.979       .  S
C79         C310   1.510       .  S
C80         C240   1.478       .  S
C81         C296   1.496       .  S
C82         C257   1.518       .  S
O83          C96   1.259       .  A
O83         Co91   1.957       .  S
O84          C97   1.263       .  A
O84         Co92   1.850   1_545  S
O85          C98   1.267       .  A
O85         Co93   2.009       .  S
O86          C99   1.277       .  A
O86         Co94   2.040       .  S
O87          C99   1.267       .  A
O87         Co92   1.974       .  S
O88          C98   1.258       .  A
O88         Co91   1.990   1_545  S
O89          C96   1.273       .  A
O89         Co94   2.022       .  S
O90          C97   1.295       .  A
O90         Co93   2.123       .  S
Co91         O95   2.013       .  S
Co92         O95   1.985       .  S
Co93         O95   2.017   1_545  S
Co94         O95   2.023       .  S
C96         C114   1.498       .  S
C97         C352   1.495       .  S
C98         C366   1.510       .  S
C99         C103   1.521       .  S
C100        C101   1.429       .  A
C100        C105   1.435       .  A
C101        C102   1.421       .  A
C101        C106   1.444       .  S
C102        C103   1.414       .  A
C102        C109   1.455       .  S
C103        C104   1.415       .  A
C104        C105   1.425       .  A
C104        C107   1.455       .  S
C105        C108   1.445       .  S
C106        N548   1.157       .  T
C107        N112   1.157       .  T
C108        N110   1.158       .  T
C109        N111   1.157       .  T
N113        C541   1.157       .  T
C114        C115   1.411       .  A
C114        C119   1.413       .  A
C115        C116   1.412       .  A
C115        C120   1.455       .  S
C116        C117   1.422       .  A
C116        C123   1.444       .  S
C117        C447   1.509   1_554  S
C117        C118   1.416       .  A
C118        C119   1.414       .  A
C118        C121   1.450       .  S
C119        C122   1.449       .  S
C120        N127   1.158       .  T
C121        N561   1.158       .  T
C122        N124   1.156       .  T
C123        N125   1.156       .  T
N126        C556   1.158       .  T
C128        C129   1.411       .  A
C128        C133   1.417       .  A
C129        C130   1.396       .  A
C129        C134   1.445       .  S
C130        C131   1.408       .  A
C130        C137   1.448       .  S
C131        C446   1.508       .  S
C131        C132   1.414       .  A
C132        C133   1.422       .  A
C132        C135   1.447       .  S
C133        C136   1.448       .  S
C134        N141   1.156       .  T
C135        N140   1.157       .  T
C136        N138   1.157       .  T
C137        N574   1.152       .  T
N139        C572   1.152       .  T
C142        C143   1.420       .  A
C142        C147   1.428       .  A
C143        C144   1.409       .  A
C143        C148   1.442       .  S
C144        C145   1.416       .  A
C144        C151   1.447       .  S
C145        C146   1.418       .  A
C146        C147   1.420       .  A
C146        C149   1.451       .  S
C147        C150   1.450   1_554  S
C148        N155   1.158       .  T
C149        N154   1.158   1_455  T
C150        N587   1.157       .  T
C151        N153   1.157       .  T
N152        C585   1.157       .  T
C156        C157   1.423       .  A
C156        C161   1.417       .  A
C157        C158   1.416       .  A
C157        C162   1.447       .  S
C158        C159   1.408       .  A
C158        C165   1.451       .  S
C159        C160   1.406       .  A
C160        C161   1.395       .  A
C160        C163   1.451       .  S
C161        C164   1.451       .  S
C162        N169   1.157       .  T
C163        N168   1.158       .  T
C164        N601   1.156       .  T
C165        N167   1.157       .  T
N166        C599   1.156       .  T
C170        C171   1.410       .  A
C170        C175   1.409       .  A
C171        C172   1.413       .  A
C171        C176   1.452       .  S
C172        C173   1.428       .  A
C172        C179   1.442       .  S
C173        C445   1.534       .  S
C173        C174   1.425       .  A
C174        C175   1.414       .  A
C174        C177   1.450       .  S
C175        C178   1.449       .  S
C176        N183   1.157       .  T
C177        N182   1.157   1_554  T
C178        N180   1.157       .  T
C179        N181   1.157       .  T
C184        C444   1.526       .  S
C184        C185   1.428       .  A
C184        C189   1.423       .  A
C185        C186   1.419       .  A
C185        C190   1.446       .  S
C186        C187   1.408       .  A
C186        C193   1.451       .  S
C187        C188   1.402       .  A
C188        C189   1.409       .  A
C188        C191   1.450       .  S
C189        C192   1.449       .  S
C190        N197   1.157       .  T
C191        N196   1.157   1_455  T
C192        N194   1.157       .  T
C193        N195   1.157       .  T
C198        C199   1.416       .  A
C198        C203   1.418       .  A
C199        C200   1.404       .  A
C199        C204   1.449       .  S
C200        C201   1.402       .  A
C200        C207   1.448       .  S
C201        C202   1.415       .  A
C202        C203   1.418       .  A
C202        C205   1.448       .  S
C203        C206   1.448       .  S
C204        N211   1.156   1_554  T
C205        N210   1.157       .  T
C206        N208   1.157       .  T
C207        N209   1.157       .  T
C212        C213   1.414       .  A
C212        C217   1.412       .  A
C213        C214   1.409       .  A
C213        C218   1.446       .  S
C214        C215   1.411       .  A
C214        C221   1.450       .  S
C215        C216   1.423       .  A
C216        C217   1.427       .  A
C216        C219   1.447       .  S
C217        C220   1.447       .  S
C218        N225   1.157       .  T
C219        N224   1.157       .  T
C220        N222   1.157       .  T
C221        N658   1.156       .  T
N223        C656   1.156       .  T
C226        C443   1.535   1_554  S
C226        C227   1.427       .  A
C226        C231   1.423       .  A
C227        C228   1.425       .  A
C227        C232   1.445       .  S
C228        C229   1.416       .  A
C228        C235   1.451       .  S
C229        C230   1.419       .  A
C230        C231   1.416       .  A
C230        C233   1.456       .  S
C231        C234   1.449       .  S
C232        N239   1.157       .  T
C233        N238   1.158       .  T
C234        N236   1.157       .  T
C235        N237   1.157       .  T
C240        C241   1.403       .  A
C240        C245   1.410       .  A
C241        C242   1.410       .  A
C241        C246   1.447       .  S
C242        C243   1.421       .  A
C242        C249   1.448       .  S
C243        C244   1.423       .  A
C244        C245   1.409       .  A
C244        C247   1.441       .  S
C245        C248   1.457       .  S
C246        N253   1.157       .  T
C247        N252   1.157       .  T
C248        N250   1.157       .  T
C249        N686   1.157       .  T
N251        C684   1.157   1_554  T
C254        C442   1.524   1_554  S
C254        C255   1.414       .  A
C254        C259   1.421       .  A
C255        C256   1.419       .  A
C255        C260   1.450       .  S
C256        C257   1.429       .  A
C256        C263   1.453       .  S
C257        C258   1.421       .  A
C258        C259   1.414       .  A
C258        C261   1.453       .  S
C259        C262   1.454   1_554  S
C260        N267   1.157       .  T
C261        N266   1.158       .  T
C262        N699   1.157       .  T
C263        N265   1.157       .  T
N264        C697   1.157       .  T
C268        C269   1.419       .  A
C268        C273   1.421       .  A
C269        C270   1.421       .  A
C269        C274   1.450       .  S
C270        C271   1.420       .  A
C270        C277   1.450       .  S
C271        C272   1.401       .  A
C272        C273   1.409       .  A
C272        C275   1.445       .  S
C273        C276   1.442       .  S
C274        N281   1.157       .  T
C275        N280   1.156       .  T
C276        N278   1.156       .  T
C277        N279   1.157       .  T
C282        C283   1.415       .  A
C282        C287   1.408       .  A
C283        C284   1.415       .  A
C283        C288   1.453       .  S
C284        C285   1.429       .  A
C284        C291   1.449       .  S
C285        C441   1.557       .  S
C285        C286   1.419       .  A
C286        C287   1.417       .  A
C286        C289   1.445       .  S
C287        C290   1.443       .  S
C288        N295   1.158       .  T
C289        N294   1.157       .  T
C290        N292   1.156       .  T
C291        N728   1.157       .  T
N293        C726   1.157       .  T
C296        C297   1.415       .  A
C296        C301   1.408       .  A
C297        C298   1.414       .  A
C297        C302   1.452       .  S
C298        C299   1.422       .  A
C298        C305   1.448       .  S
C299        C300   1.419       .  A
C300        C301   1.412       .  A
C300        C303   1.448       .  S
C301        C304   1.451       .  S
C302        N309   1.157       .  T
C303        N308   1.157       .  T
C304        N306   1.157   1_545  T
C305        N307   1.156       .  T
C310        C311   1.412       .  A
C310        C315   1.404       .  A
C311        C312   1.428       .  A
C311        C316   1.449       .  S
C312        C313   1.427       .  A
C312        C319   1.445       .  S
C313        C440   1.527   1_554  S
C313        C314   1.415       .  A
C314        C315   1.402       .  A
C314        C317   1.450   1_554  S
C315        C318   1.429       .  S
C316        N323   1.157       .  T
C317        N322   1.157       .  T
C318        N320   1.146       .  T
C319        N321   1.157       .  T
C324        C325   1.424       .  A
C324        C329   1.415       .  A
C325        C326   1.406       .  A
C325        C330   1.457       .  S
C326        C327   1.412       .  A
C326        C333   1.450       .  S
C327        C328   1.423       .  A
C328        C329   1.425       .  A
C328        C331   1.447       .  S
C329        C332   1.448       .  S
C330        N337   1.158       .  T
C331        N336   1.157       .  T
C332        N334   1.157       .  T
C333        N335   1.157       .  T
C338        C339   1.400       .  A
C338        C343   1.403       .  A
C339        C340   1.399       .  A
C339        C344   1.446       .  S
C340        C341   1.416       .  A
C340        C347   1.445       .  S
C341        C439   1.525       .  S
C341        C342   1.430       .  A
C342        C343   1.423       .  A
C342        C345   1.443       .  S
C343        C346   1.450       .  S
C344        N351   1.157       .  T
C345        N350   1.157       .  T
C346        N348   1.157       .  T
C347        N349   1.157       .  T
C352        C353   1.416       .  A
C352        C357   1.404       .  A
C353        C354   1.428       .  A
C353        C358   1.443       .  S
C354        C355   1.423       .  A
C354        C361   1.445       .  S
C355        C356   1.418       .  A
C356        C357   1.391       .  A
C356        C359   1.448       .  S
C357        C360   1.453       .  S
C358        N365   1.155       .  T
C359        N799   1.158       .  T
C360        N362   1.157       .  T
C361        N363   1.157       .  T
N364        C794   1.158       .  T
C366        C367   1.417       .  A
C366        C371   1.409       .  A
C367        C368   1.413       .  A
C367        C372   1.446       .  S
C368        C369   1.414       .  A
C368        C375   1.452       .  S
C369        C438   1.513       .  S
C369        C370   1.421       .  A
C370        C371   1.412       .  A
C370        C373   1.447       .  S
C371        C374   1.451       .  S
C372        N379   1.156       .  T
C373        N378   1.157       .  T
C374        N376   1.157       .  T
C375        N377   1.157       .  T
C380        C381   1.430       .  A
C380        C385   1.424       .  A
C381        C382   1.421       .  A
C381        C386   1.445       .  S
C382        C383   1.414       .  A
C382        C389   1.450       .  S
C383        C384   1.409       .  A
C384        C385   1.414       .  A
C384        C387   1.448       .  S
C385        C388   1.450       .  S
C386        N393   1.157       .  T
C387        N392   1.157       .  T
C388        N825   1.157       .  T
C389        N391   1.156       .  T
N390        C823   1.157   1_554  T
C394        C395   1.409       .  A
C394        C399   1.409       .  A
C395        C396   1.418       .  A
C395        C400   1.450       .  S
C396        C397   1.424       .  A
C396        C403   1.447       .  S
C397        C437   1.521   1_554  S
C397        C398   1.421       .  A
C398        C399   1.404       .  A
C398        C401   1.453   1_554  S
C399        C402   1.450       .  S
C400        N407   1.157       .  T
C401        N841   1.157       .  T
C402        N404   1.157       .  T
C403        N405   1.157       .  T
N406        C836   1.157       .  T
C408        C409   1.405       .  A
C408        C413   1.403       .  A
C409        C410   1.410       .  A
C409        C414   1.448       .  S
C410        C411   1.423       .  A
C410        C417   1.444       .  S
C411        C412   1.424       .  A
C412        C413   1.410       .  A
C412        C415   1.449       .  S
C413        C416   1.448       .  S
C414        N421   1.157       .  T
C415        N855   1.157       .  T
C416        N418   1.157       .  T
C417        N419   1.156       .  T
N420        C850   1.157       .  T
C422        C423   1.428       .  A
C422        C427   1.409       .  A
C423        C424   1.422       .  A
C423        C428   1.450       .  S
C424        C425   1.409       .  A
C424        C431   1.448       .  S
C425        C436   1.500       .  S
C425        C426   1.408       .  A
C426        C427   1.399       .  A
C426        C429   1.455       .  S
C427        C430   1.434       .  S
C428        N435   1.157       .  T
C429        N869   1.157       .  T
C430        N432   1.152       .  T
C431        N433   1.157       .  T
N434        C864   1.157       .  T
C436        C846   1.518       .  S
C437        C815   1.538       .  S
C438        C790   1.544   1_554  S
C438        C439   1.389       .  D
C439        C762   1.516   1_554  S
C440        C734   1.520       .  S
C441        C703   1.523       .  S
C442        C678   1.537       .  S
C442        C443   1.390       .  D
C443        C650   1.512       .  S
C444        C633   1.504       .  S
C445        C591   1.507   1_554  S
C446        C577   1.571       .  S
C447        C535   1.553       .  S
O448        C456   1.261       .  A
O448       Co468   1.966       .  S
O449        C457   1.259       .  A
O449       Co469   1.986   1_455  S
O450        C458   1.276       .  A
O450       Co470   2.048       .  S
O451        C459   1.286       .  A
O451       Co471   2.101       .  S
O452        C458   1.256       .  A
O452       Co469   1.965       .  S
O453        C459   1.257       .  A
O453       Co468   1.875   1_455  S
O454        C457   1.265       .  A
O454       Co471   1.994       .  S
O455        C456   1.280       .  A
O455       Co470   2.058       .  S
C456        C717   1.498       .  S
C457        C636   1.492       .  S
C458        C706   1.510       .  S
C459        C622   1.488       .  S
O460        C473   1.288       .  A
O460       Co468   2.079   1_455  S
O461        C474   1.282       .  A
O461       Co469   2.057       .  S
O462        C475   1.245       .  A
O462       Co470   1.955       .  S
O463        C476   1.277       .  A
O463       Co471   1.987       .  S
O464        C476   1.280       .  A
O464       Co469   2.038   1_455  S
O465        C475   1.269       .  A
O465       Co468   2.057       .  S
O466        C473   1.268       .  A
O466       Co471   1.913       .  S
O467        C474   1.247       .  A
O467       Co470   1.939       .  S
Co468       O472   2.004       .  S
Co469       O472   2.025       .  S
Co470       O472   2.046       .  S
Co471       O472   2.028   1_455  S
C473        C563   1.485       .  S
C474        C843   1.484       .  S
C475        C857   1.500       .  S
C476        C580   1.510       .  S
O477        C485   1.256       .  A
O477       Co497   2.004       .  S
O478        C486   1.253       .  A
O478       Co498   1.962       .  S
O479        C487   1.278       .  A
O479       Co499   2.044       .  S
O480        C488   1.245       .  A
O480       Co500   1.975       .  S
O481        C487   1.258       .  A
O481       Co498   1.946       .  S
O482        C488   1.251       .  A
O482       Co497   1.998       .  S
O483        C486   1.267       .  A
O483       Co500   2.005       .  S
O484        C485   1.242       .  A
O484       Co499   1.973       .  S
C485        C773   1.486       .  S
C486        C594   1.471       .  S
C487        C759   1.514       .  S
C488        C605   1.496       .  S
O489        C502   1.295       .  A
O489       Co497   2.063       .  S
O490        C503   1.265       .  A
O490       Co498   2.016       .  S
O491        C504   1.273       .  A
O491       Co499   1.918       .  S
O492        C505   1.264       .  A
O492       Co500   2.005       .  S
O493        C505   1.267       .  A
O493       Co498   2.016       .  S
O494        C504   1.284       .  A
O494       Co497   2.032       .  S
O495        C502   1.276       .  A
O495       Co500   1.923       .  S
O496        C503   1.259       .  A
O496       Co499   1.991       .  S
Co497       O501   2.233       .  S
Co498       O501   2.069       .  S
Co499       O501   1.969       .  S
Co500       O501   1.958       .  S
C502        C664   1.519       .  S
C503        C818   1.500       .  S
C504        C829   1.483       .  S
C505        C647   1.504       .  S
O506        C514   1.283       .  A
O506       Co526   2.027   1_545  S
O507        C515   1.262       .  A
O507       Co527   2.025       .  S
O508        C516   1.265       .  A
O508       Co528   1.886       .  S
O509        C517   1.257       .  A
O509       Co529   1.954       .  S
O510        C516   1.301       .  A
O510       Co527   2.121   1_545  S
O511        C517   1.276       .  A
O511       Co526   2.042       .  S
O512        C515   1.250       .  A
O512       Co529   1.958       .  S
O513        C514   1.264       .  A
O513       Co528   1.979       .  S
C514        C745   1.510       .  S
C515        C675   1.478       .  S
C516        C731   1.496       .  S
C517        C692   1.518       .  S
O518        C531   1.259       .  A
O518       Co526   1.957       .  S
O519        C532   1.263       .  A
O519       Co527   1.849   1_545  S
O520        C533   1.267       .  A
O520       Co528   2.009       .  S
O521        C534   1.277       .  A
O521       Co529   2.040       .  S
O522        C534   1.267       .  A
O522       Co527   1.974       .  S
O523        C533   1.258       .  A
O523       Co526   1.990   1_545  S
O524        C531   1.273       .  A
O524       Co529   2.022       .  S
O525        C532   1.295       .  A
O525       Co528   2.123       .  S
Co526       O530   2.013       .  S
Co527       O530   1.985       .  S
Co528       O530   2.017   1_545  S
Co529       O530   2.023       .  S
C531        C549   1.498       .  S
C532        C787   1.495       .  S
C533        C801   1.510       .  S
C534        C538   1.521       .  S
C535        C536   1.429       .  A
C535        C540   1.435       .  A
C536        C537   1.421       .  A
C536        C541   1.444       .  S
C537        C538   1.414       .  A
C537        C544   1.455       .  S
C538        C539   1.415       .  A
C539        C540   1.425       .  A
C539        C542   1.455       .  S
C540        C543   1.445       .  S
C542        N547   1.157       .  T
C543        N545   1.158       .  T
C544        N546   1.157       .  T
C549        C550   1.411       .  A
C549        C554   1.413       .  A
C550        C551   1.412       .  A
C550        C555   1.455       .  S
C551        C552   1.422       .  A
C551        C558   1.444       .  S
C552        C553   1.416       .  A
C553        C554   1.414       .  A
C553        C556   1.450       .  S
C554        C557   1.449       .  S
C555        N562   1.158       .  T
C557        N559   1.156       .  T
C558        N560   1.156       .  T
C563        C564   1.411       .  A
C563        C568   1.417       .  A
C564        C565   1.396       .  A
C564        C569   1.445       .  S
C565        C566   1.408       .  A
C565        C572   1.448   1_556  S
C566        C567   1.414       .  A
C567        C568   1.422       .  A
C567        C570   1.447       .  S
C568        C571   1.448       .  S
C569        N576   1.156       .  T
C570        N575   1.157       .  T
C571        N573   1.157       .  T
C577        C578   1.420       .  A
C577        C582   1.428       .  A
C578        C579   1.409       .  A
C578        C583   1.442       .  S
C579        C580   1.416       .  A
C579        C586   1.447       .  S
C580        C581   1.418       .  A
C581        C582   1.420       .  A
C581        C584   1.451       .  S
C582        C585   1.450       .  S
C583        N590   1.158       .  T
C584        N589   1.158   1_455  T
C586        N588   1.157       .  T
C591        C592   1.423       .  A
C591        C596   1.417       .  A
C592        C593   1.416       .  A
C592        C597   1.447       .  S
C593        C594   1.408       .  A
C593        C600   1.451       .  S
C594        C595   1.406       .  A
C595        C596   1.395       .  A
C595        C598   1.451       .  S
C596        C599   1.451   1_556  S
C597        N604   1.157       .  T
C598        N603   1.158       .  T
C600        N602   1.157       .  T
C605        C606   1.410       .  A
C605        C610   1.409       .  A
C606        C607   1.413       .  A
C606        C611   1.452       .  S
C607        C608   1.428       .  A
C607        C614   1.442       .  S
C608        C609   1.425       .  A
C609        C610   1.414       .  A
C609        C612   1.450       .  S
C610        C613   1.449       .  S
C611        N618   1.157       .  T
C612        N617   1.157       .  T
C613        N615   1.157       .  T
C614        N616   1.157       .  T
C619        C620   1.428       .  A
C619        C624   1.423       .  A
C620        C621   1.419       .  A
C620        C625   1.446       .  S
C621        C622   1.408       .  A
C621        C628   1.451       .  S
C622        C623   1.402       .  A
C623        C624   1.409       .  A
C623        C626   1.450       .  S
C624        C627   1.449       .  S
C625        N632   1.157       .  T
C626        N631   1.157   1_455  T
C627        N629   1.157       .  T
C628        N630   1.157       .  T
C633        C634   1.416       .  A
C633        C638   1.418       .  A
C634        C635   1.404       .  A
C634        C639   1.449       .  S
C635        C636   1.402       .  A
C635        C642   1.448       .  S
C636        C637   1.415       .  A
C637        C638   1.418       .  A
C637        C640   1.448       .  S
C638        C641   1.448       .  S
C639        N646   1.156       .  T
C640        N645   1.157       .  T
C641        N643   1.157       .  T
C642        N644   1.157       .  T
C647        C648   1.414       .  A
C647        C652   1.412       .  A
C648        C649   1.409       .  A
C648        C653   1.446       .  S
C649        C650   1.411       .  A
C649        C656   1.450       .  S
C650        C651   1.423       .  A
C651        C652   1.427       .  A
C651        C654   1.447       .  S
C652        C655   1.447       .  S
C653        N660   1.157       .  T
C654        N659   1.157       .  T
C655        N657   1.157       .  T
C661        C662   1.427       .  A
C661        C666   1.423       .  A
C662        C663   1.425       .  A
C662        C667   1.445       .  S
C663        C664   1.416       .  A
C663        C670   1.451       .  S
C664        C665   1.419       .  A
C665        C666   1.416       .  A
C665        C668   1.456       .  S
C666        C669   1.449       .  S
C667        N674   1.157       .  T
C668        N673   1.158       .  T
C669        N671   1.157       .  T
C670        N672   1.157       .  T
C675        C676   1.403       .  A
C675        C680   1.410       .  A
C676        C677   1.410       .  A
C676        C681   1.447       .  S
C677        C678   1.421       .  A
C677        C684   1.448       .  S
C678        C679   1.423       .  A
C679        C680   1.409       .  A
C679        C682   1.441       .  S
C680        C683   1.457       .  S
C681        N688   1.157       .  T
C682        N687   1.157       .  T
C683        N685   1.157       .  T
C689        C690   1.414       .  A
C689        C694   1.421       .  A
C690        C691   1.419       .  A
C690        C695   1.450       .  S
C691        C692   1.429       .  A
C691        C698   1.453       .  S
C692        C693   1.421       .  A
C693        C694   1.414       .  A
C693        C696   1.453       .  S
C694        C697   1.454       .  S
C695        N702   1.157       .  T
C696        N701   1.158       .  T
C698        N700   1.157       .  T
C703        C704   1.419       .  A
C703        C708   1.421       .  A
C704        C705   1.421       .  A
C704        C709   1.450       .  S
C705        C706   1.420       .  A
C705        C712   1.450       .  S
C706        C707   1.401       .  A
C707        C708   1.409       .  A
C707        C710   1.445       .  S
C708        C711   1.442       .  S
C709        N716   1.157       .  T
C710        N715   1.156       .  T
C711        N713   1.156       .  T
C712        N714   1.157       .  T
C717        C718   1.415       .  A
C717        C722   1.408       .  A
C718        C719   1.415       .  A
C718        C723   1.453       .  S
C719        C720   1.429       .  A
C719        C726   1.449   1_556  S
C720        C721   1.419       .  A
C721        C722   1.417       .  A
C721        C724   1.445       .  S
C722        C725   1.443       .  S
C723        N730   1.158       .  T
C724        N729   1.157       .  T
C725        N727   1.156       .  T
C731        C732   1.415       .  A
C731        C736   1.408       .  A
C732        C733   1.415       .  A
C732        C737   1.452       .  S
C733        C734   1.422       .  A
C733        C740   1.448       .  S
C734        C735   1.419       .  A
C735        C736   1.412       .  A
C735        C738   1.448       .  S
C736        C739   1.451       .  S
C737        N744   1.157       .  T
C738        N743   1.157       .  T
C739        N741   1.157   1_545  T
C740        N742   1.156       .  T
C745        C746   1.412       .  A
C745        C750   1.404       .  A
C746        C747   1.428       .  A
C746        C751   1.449       .  S
C747        C748   1.427       .  A
C747        C754   1.445       .  S
C748        C749   1.416       .  A
C749        C750   1.402       .  A
C749        C752   1.450       .  S
C750        C753   1.429       .  S
C751        N758   1.157       .  T
C752        N757   1.157       .  T
C753        N755   1.146       .  T
C754        N756   1.157       .  T
C759        C760   1.424       .  A
C759        C764   1.415       .  A
C760        C761   1.406       .  A
C760        C765   1.457       .  S
C761        C762   1.412       .  A
C761        C768   1.450       .  S
C762        C763   1.423       .  A
C763        C764   1.425       .  A
C763        C766   1.447       .  S
C764        C767   1.448       .  S
C765        N772   1.158       .  T
C766        N771   1.157       .  T
C767        N769   1.157       .  T
C768        N770   1.157       .  T
C773        C774   1.400       .  A
C773        C778   1.403       .  A
C774        C775   1.399       .  A
C774        C779   1.446       .  S
C775        C776   1.416       .  A
C775        C782   1.445       .  S
C776        C777   1.430       .  A
C777        C778   1.423       .  A
C777        C780   1.443       .  S
C778        C781   1.450       .  S
C779        N786   1.157       .  T
C780        N785   1.157       .  T
C781        N783   1.157       .  T
C782        N784   1.157       .  T
C787        C788   1.416       .  A
C787        C792   1.404       .  A
C788        C789   1.428       .  A
C788        C793   1.443       .  S
C789        C790   1.423       .  A
C789        C796   1.445       .  S
C790        C791   1.418       .  A
C791        C792   1.391       .  A
C791        C794   1.448   1_556  S
C792        C795   1.453       .  S
C793        N800   1.155       .  T
C795        N797   1.157       .  T
C796        N798   1.157       .  T
C801        C802   1.417       .  A
C801        C806   1.409       .  A
C802        C803   1.413       .  A
C802        C807   1.446       .  S
C803        C804   1.414       .  A
C803        C810   1.452       .  S
C804        C805   1.421       .  A
C805        C806   1.412       .  A
C805        C808   1.447       .  S
C806        C809   1.451       .  S
C807        N814   1.156       .  T
C808        N813   1.157       .  T
C809        N811   1.157       .  T
C810        N812   1.157       .  T
C815        C816   1.430       .  A
C815        C820   1.424       .  A
C816        C817   1.421       .  A
C816        C821   1.445       .  S
C817        C818   1.414       .  A
C817        C824   1.450       .  S
C818        C819   1.409       .  A
C819        C820   1.414       .  A
C819        C822   1.448       .  S
C820        C823   1.450       .  S
C821        N828   1.157       .  T
C822        N827   1.157       .  T
C824        N826   1.156       .  T
C829        C830   1.409       .  A
C829        C834   1.409       .  A
C830        C831   1.418       .  A
C830        C835   1.450       .  S
C831        C832   1.424       .  A
C831        C838   1.447       .  S
C832        C833   1.421       .  A
C833        C834   1.404       .  A
C833        C836   1.453       .  S
C834        C837   1.450       .  S
C835        N842   1.157       .  T
C837        N839   1.157       .  T
C838        N840   1.157       .  T
C843        C844   1.405       .  A
C843        C848   1.403       .  A
C844        C845   1.410       .  A
C844        C849   1.448       .  S
C845        C846   1.423       .  A
C845        C852   1.444       .  S
C846        C847   1.424       .  A
C847        C848   1.410       .  A
C847        C850   1.449       .  S
C848        C851   1.448       .  S
C849        N856   1.157       .  T
C851        N853   1.157       .  T
C852        N854   1.156       .  T
C857        C858   1.428       .  A
C857        C862   1.409       .  A
C858        C859   1.422       .  A
C858        C863   1.450       .  S
C859        C860   1.409       .  A
C859        C866   1.448       .  S
C860        C861   1.408       .  A
C861        C862   1.399       .  A
C861        C864   1.455       .  S
C862        C865   1.434       .  S
C863        N870   1.157       .  T
C865        N867   1.152       .  T
C866        N868   1.157       .  T
