geometry optimzed in LAMMPS
_audit_creation_date              2020-11-30 
_audit_creation_method            'lammps2cif' 
_symmetry_space_group_name_H-M    'P1' 
_symmetry_Int_Tables_number       1 
_symmetry_cell_setting            triclinic 
loop_ 
_symmetry_equiv_pos_as_xyz 
  x,y,z 
_cell_length_a                    37.84465883 
_cell_length_b                    37.713606223133866 
_cell_length_c                    34.001747444443296 
_cell_angle_alpha                 90.43743891461122 
_cell_angle_beta                  89.7700521800728 
_cell_angle_gamma                 119.7780921751322 
loop_ 
_atom_site_label 
_atom_site_type_symbol 
_atom_site_fract_x 
_atom_site_fract_y 
_atom_site_fract_z 
_atom_site_charge 
C1          C  0.23409251  0.19989601  0.15774807     0.02700
C2          C  0.26463507  0.23395658  0.17748098    -0.13400
C3          C  0.29118056  0.26938890  0.15685634     0.00200
C4          C  0.28882438  0.26927067  0.11578819    -0.12000
C5          C  0.26144674  0.23390504  0.09449174     0.02700
C6          C  0.23351686  0.19927002  0.11642116    -0.11400
H7          H  0.26653240  0.23337668  0.20922647     0.08300
H8          H  0.30796546  0.29776133  0.10104305     0.05800
H9          H  0.21071610  0.17165153  0.10235865     0.05700
C10         C  0.22639623  0.20722022  0.48734397     0.02700
C11         C  0.22820463  0.20401993  0.02813988    -0.13400
C12         C  0.26066160  0.23496123  0.05009815     0.00200
C13         C  0.29258255  0.26750698  0.02884872    -0.12000
C14         C  0.28851101  0.27356380  0.48872757     0.02700
C15         C  0.25398882  0.24340304  0.46884599    -0.11400
H16         H  0.20425005  0.17699606  0.04175062     0.08300
H17         H  0.32116555  0.28766695  0.04293297     0.05800
H18         H  0.24904678  0.24680365  0.43809354     0.05700
C19         C  0.26187243  0.49871144  0.15450189     0.02700
C20         C  0.26168306  0.49858407  0.11314083    -0.13400
C21         C  0.22601977  0.48926571  0.09167024     0.00200
C22         C  0.19045353  0.47964023  0.11374409    -0.12000
C23         C  0.19072866  0.48111077  0.15494912     0.02700
C24         C  0.22662008  0.49090851  0.17501148    -0.11400
H25         H  0.28985990  0.50605450  0.09855982     0.08300
H26         H  0.16158387  0.47028859  0.09998046     0.05800
H27         H  0.22690657  0.49165391  0.20687109     0.05700
C28         C  0.25941896  0.49742779  0.48302007     0.02700
C29         C  0.22574325  0.49499906  0.46389837    -0.13400
C30         C  0.19085709  0.48707572  0.48503816     0.00200
C31         C  0.19170215  0.48621605  0.02620962    -0.12000
C32         C  0.22584865  0.49008048  0.04699624     0.02700
C33         C  0.25928993  0.49433972  0.02421450    -0.11400
H34         H  0.22605940  0.49731940  0.43213124     0.08300
H35         H  0.16480139  0.48193349  0.04111106     0.05800
H36         H  0.28522620  0.49459269  0.03752033     0.05700
C37         C  0.45142972  0.21948043  0.15860882     0.02700
C38         C  0.44847221  0.21964061  0.11740172    -0.13400
C39         C  0.45244886  0.19060051  0.09375702     0.00200
C40         C  0.45993019  0.16192428  0.11353784    -0.12000
C41         C  0.46008532  0.15987601  0.15456941     0.02700
C42         C  0.45510725  0.18839032  0.17679673    -0.11400
H43         H  0.44470952  0.24360954  0.10460986     0.08300
H44         H  0.46779663  0.14184821  0.09812518     0.05800
H45         H  0.45682563  0.18810269  0.20861695     0.05700
C46         C  0.44882752  0.22294258  0.48692957     0.02700
C47         C  0.44999143  0.22311567  0.02825486    -0.13400
C48         C  0.45052722  0.19088504  0.04914051     0.00200
C49         C  0.45102298  0.15936422  0.02652906    -0.12000
C50         C  0.45000854  0.15891484  0.48538302     0.02700
C51         C  0.44751175  0.19024863  0.46600416    -0.11400
H52         H  0.45240473  0.24956664  0.04313483     0.08300
H53         H  0.45409746  0.13548438  0.03999279     0.05800
H54         H  0.44728072  0.19074320  0.43412901     0.05700
O55         O  0.40678325  0.02421074  0.27366513    -0.88600
C56         C  0.10867397  0.08661092  0.38136877     1.11500
O57         O  0.44649667  0.48159402  0.31885783    -1.36400
O58         O  0.08798737  0.09689279  0.27935748    -0.90100
O59         O  0.36867890  0.45607202  0.26966235    -0.90700
O60         O  0.44492505  0.43583837  0.23617144    -0.79600
O61         O  0.49667004  0.06152716  0.28295359    -1.01600
C62         C  0.05813522  0.46836479  0.25045874     1.21500
O63         O  0.48190762  0.43164946  0.32096809    -1.36500
Mn64       Mn  0.48471246  0.47643505  0.36341569     1.82100
O65         O  0.02872835  0.47215745  0.23924120    -0.78600
O66         O  0.11508472  0.05620827  0.28001933    -0.88000
C67         C  0.05389779  0.46856328  0.39468810     1.12600
C68         C  0.11371254  0.08688913  0.26699404     1.07300
O69         O  0.43858118  0.43594103  0.40268366    -0.79600
O70         O  0.03081152  0.01619927  0.32165596    -1.33300
O71         O  0.40215268  0.40245108  0.35466292    -0.98800
C72         C  0.47383465  0.34944257  0.26579968     1.06000
Mn73       Mn  0.08535797  0.01251884  0.32330202     1.48600
O74         O  0.44125751  0.34751190  0.27826163    -0.88000
Mn75       Mn  0.38691130  0.43134584  0.31615340     1.49600
O76         O  0.40329807  0.02286757  0.36119926    -0.91900
C77         C  0.49560909  0.05430779  0.24785068     1.19200
C78         C  0.37251392  0.48970743  0.37251989     1.11300
Mn79       Mn  0.48762420  0.47643065  0.27783546     1.81000
O80         O  0.05949120  0.46690601  0.35961053    -0.97000
Mn81       Mn  0.44938133  0.03954363  0.31846755     1.49300
C82         C  0.37824882  0.49195642  0.25822770     1.07800
Mn83       Mn  0.03200153  0.42133147  0.32247233     1.49900
C84         C  0.47185411  0.35142672  0.37947356     1.10700
O85         O  0.40533692  0.40193467  0.28203377    -1.02800
O86         O  0.11255989  0.05719335  0.36770038    -0.92500
C87         C  0.41211072  0.40578547  0.24703071     1.22000
O88         O  0.06270168  0.46658657  0.28577147    -1.03200
O89         O  0.08303868  0.09591904  0.36794410    -0.90600
O90         O  0.00690753  0.37692738  0.36650444    -0.90200
O91         O  0.36384991  0.45525599  0.35796788    -0.90200
Mn92       Mn  0.04073697  0.07653479  0.32164407     1.47900
O93         O  0.02401387  0.47231528  0.40501232    -0.78700
C94         C  0.40643639  0.40589901  0.39005692     1.15000
O95         O  0.49248324  0.02085333  0.23748199    -0.77400
O96         O  0.48618563  0.02067449  0.40311357    -0.77000
Mn97       Mn  0.42470730  0.37718072  0.32025111     1.51100
O98         O  0.00885096  0.37587685  0.27845309    -0.89400
O99         O  0.49339048  0.06028329  0.35641050    -0.96900
O100        O  0.43947779  0.34918250  0.36593293    -0.91900
C101        C  0.48896474  0.05346481  0.39146055     1.12800
C102        C  0.45296962  0.06384365  0.44841980    -0.09600
C103        C  0.48108523  0.08058649  0.41743020     0.06600
C104        C  0.99832653  0.12266651  0.40939521    -0.03300
C105        C  0.98774748  0.14683582  0.43209172    -0.07800
C106        C  0.45886470  0.13026115  0.46240458     0.05800
C107        C  0.44138340  0.08801127  0.47059729    -0.02800
Br108      Br  0.39964997  0.06046064  0.50945291    -0.02500
H109        H  0.43861708  0.03142751  0.45437402     0.09700
H110        H  0.00282716  0.17927974  0.42610169     0.07700
Br111      Br  0.03853369  0.15033302  0.36940817    -0.02900
C112        C  0.99274049  0.28137466  0.44437738    -0.09600
C113        C  0.45578784  0.25948600  0.46451544     0.06600
C114        C  0.42540221  0.27011447  0.45912655    -0.03300
C115        C  0.43179627  0.30112824  0.43254942    -0.07800
C116        C  0.46828424  0.32209720  0.41080248     0.05800
C117        C  0.99931833  0.31217034  0.41779525    -0.02800
Br118      Br  0.05024293  0.33583279  0.39005185    -0.02500
H119        H  0.01620980  0.27318369  0.44821798     0.09700
H120        H  0.40761623  0.30809117  0.42819702     0.07700
Br121      Br  0.37390703  0.24137743  0.48545864    -0.02900
C122        C  0.00238998  0.14903303  0.20290579    -0.09600
C123        C  0.47141694  0.13205127  0.17465220     0.06600
C124        C  0.45198913  0.08953763  0.16725915    -0.03300
C125        C  0.46275671  0.06499689  0.18931885    -0.07800
C126        C  0.49197513  0.08191719  0.21945758     0.05800
C127        C  0.01232876  0.12463581  0.22551019    -0.02800
Br128      Br  0.05359616  0.15248699  0.26443037    -0.02500
H129        H  0.01848709  0.18172922  0.20815932     0.09700
H130        H  0.44624801  0.03221989  0.18467982     0.07700
Br131      Br  0.40808259  0.06273702  0.13037031    -0.02900
C132        C  0.99354473  0.27567275  0.20482054    -0.09600
C133        C  0.45739353  0.25479688  0.18302376     0.06600
C134        C  0.42742044  0.26619368  0.18740520    -0.03300
C135        C  0.43392434  0.29778054  0.21360447    -0.07800
C136        C  0.47005044  0.31857930  0.23594469     0.05800
C137        C  0.99997579  0.30679095  0.23133130    -0.02800
Br138      Br  0.04835153  0.32798424  0.26293986    -0.02500
H139        H  0.01656689  0.26667714  0.20210335     0.09700
H140        H  0.40995940  0.30524296  0.21732743     0.07700
Br141      Br  0.37593265  0.23736791  0.16095063    -0.02900
C142        C  0.28827549  0.45931170  0.44966218    -0.09600
C143        C  0.29172474  0.49709098  0.45873835     0.06600
C144        C  0.32204023  0.53239187  0.44021060    -0.03300
C145        C  0.34884894  0.52949461  0.41348625    -0.07800
C146        C  0.34504034  0.49138494  0.40335874     0.05800
C147        C  0.31377412  0.45585613  0.42191116    -0.02800
Br148      Br  0.30137322  0.40089580  0.41027315    -0.02500
H149        H  0.26411948  0.43189355  0.96299512     0.09700
H150        H  0.37196532  0.05719303  0.39969093     0.07700
Br151      Br  0.32717769  0.08493839  0.44985128    -0.02900
C152        C  0.13136387  0.49825964  0.47695109    -0.09600
C153        C  0.15306913  0.47895889  0.46414779     0.06600
C154        C  0.13783444  0.45166650  0.43188826    -0.03400
C155        C  0.10448066  0.44771574  0.41086846    -0.07800
C156        C  0.08392323  0.46850815  0.42245160     0.05800
C157        C  0.09649067  0.49240431  0.45706829    -0.02800
Br158      Br  0.06860714  0.01896147  0.47802940    -0.02500
H159        H  0.14192924  0.01860859  0.00218865     0.09700
H160        H  0.09471886  0.42842209  0.38487418     0.07700
Br161      Br  0.15949266  0.41712087  0.41614673    -0.02900
C162        C  0.31164503  0.47554848  0.16854374    -0.09600
C163        C  0.29734519  0.50274392  0.17679484     0.06600
C164        C  0.31441055  0.53020727  0.20865060    -0.03300
C165        C  0.34175667  0.52698568  0.23395664    -0.07800
C166        C  0.35335700  0.49726184  0.22768231     0.05800
C167        C  0.33993074  0.47321540  0.19322273    -0.02800
Br168      Br  0.36180354  0.43973387  0.17629719    -0.02500
H169        H  0.30005810  0.45531701  0.14326486     0.09700
H170        H  0.35314222  0.04714020  0.25930522     0.07700
Br171      Br  0.30215307  0.07320016  0.21822560    -0.02900
C172        C  0.10649311  0.44468016  0.23168216    -0.09600
C173        C  0.08831363  0.46827207  0.22260670     0.06600
C174        C  0.10182399  0.49344790  0.18904268    -0.03300
C175        C  0.13453788  0.49645094  0.16695990    -0.07800
C176        C  0.15376360  0.47405208  0.17703224     0.05800
C177        C  0.13828858  0.44671452  0.20887196    -0.02800
Br178      Br  0.15799697  0.41004282  0.22148442    -0.02500
H179        H  0.09594181  0.42454815  0.25683218     0.09700
H180        H  0.14582180  0.01737715  0.14241822     0.07700
Br181      Br  0.07905763  0.02667485  0.17325410    -0.02900
C182        C  0.37352778  0.38017371  0.45591424    -0.09600
C183        C  0.37681079  0.37262847  0.41589112     0.06600
C184        C  0.35156164  0.33255072  0.40107943    -0.03300
C185        C  0.32653398  0.30131666  0.42638086    -0.07800
C186        C  0.32098047  0.30871680  0.46582754     0.05800
C187        C  0.34487344  0.34926236  0.48051055    -0.02800
Br188      Br  0.33803149  0.36632576  0.03199538    -0.02500
H189        H  0.39184676  0.41080067  0.46764662     0.09700
H190        H  0.31044513  0.27069869  0.41427108     0.07700
Br191      Br  0.34752459  0.31632153  0.34664790    -0.02900
C192        C  0.15461128  0.15883407  0.46906932    -0.09600
C193        C  0.19600270  0.17280601  0.46327300     0.06600
C194        C  0.20804950  0.15490683  0.43332860    -0.03300
C195        C  0.17884724  0.12537938  0.40824600    -0.07800
C196        C  0.13740737  0.11316271  0.41234019     0.05800
C197        C  0.12543335  0.12932771  0.44405415    -0.02800
Br198      Br  0.07004679  0.11138504  0.45660753    -0.02500
H199        H  0.14500561  0.17165727  0.49263639     0.09700
H200        H  0.18879241  0.11303000  0.38453970     0.07700
Br201      Br  0.26396474  0.16945149  0.42576059    -0.02900
C202        C  0.34096419  0.35419348  0.23290217    -0.09600
C203        C  0.38171699  0.37467418  0.22024068     0.06600
C204        C  0.39179181  0.36276604  0.18447661    -0.03300
C205        C  0.36183801  0.32867350  0.16406921    -0.07800
C206        C  0.32144382  0.30687448  0.17798429     0.05800
C207        C  0.31084426  0.32140521  0.21179876    -0.02800
Br208      Br  0.25567051  0.30010639  0.22951947    -0.02500
H209        H  0.33229690  0.36404988  0.25946203     0.09700
H210        H  0.37045763  0.31856885  0.13767384     0.07700
Br211      Br  0.44590269  0.39005952  0.16316878    -0.02900
C212        C  0.13309189  0.13314565  0.20889913    -0.09600
C213        C  0.14379871  0.11244783  0.23641847     0.06600
C214        C  0.18365524  0.11788426  0.23485922    -0.03300
C215        C  0.21195020  0.14488931  0.20764599    -0.07800
C216        C  0.20152136  0.16650676  0.18119247     0.05800
C217        C  0.16138205  0.15981084  0.18145296    -0.02800
Br218      Br  0.14442319  0.18867337  0.14705757    -0.02500
H219        H  0.10264229  0.12895710  0.20898064     0.09700
H220        H  0.24281018  0.15011188  0.20797257     0.07700
Br221      Br  0.20313498  0.09241320  0.27088152    -0.02900
C222        C  0.23409262  0.19989599  0.65774795     0.02700
C223        C  0.26463522  0.23395651  0.67748087    -0.13400
C224        C  0.29118076  0.26938881  0.65685622     0.00200
C225        C  0.28882463  0.26927058  0.61578807    -0.12000
C226        C  0.26144694  0.23390498  0.59449162     0.02700
C227        C  0.23351696  0.19927000  0.61642104    -0.11400
H228        H  0.26653252  0.23337663  0.70922636     0.08300
H229        H  0.30796578  0.29776122  0.60104295     0.05800
H230        H  0.21071612  0.17165155  0.60235855     0.05700
C231        C  0.22639602  0.20722028  0.98734411     0.02700
C232        C  0.22820488  0.20401984  0.52813973    -0.13400
C233        C  0.26066180  0.23496117  0.55009802     0.00200
C234        C  0.29258270  0.26750698  0.52884860    -0.12000
C235        C  0.28851089  0.27356379  0.98872768     0.02700
C236        C  0.25398867  0.24340307  0.96884612    -0.11400
H237        H  0.20425037  0.17699591  0.54175046     0.08300
H238        H  0.32116570  0.28766698  0.54293283     0.05800
H239        H  0.24904665  0.24680365  0.93809365     0.05700
C240        C  0.26187218  0.49871110  0.65450195     0.02700
C241        C  0.26168283  0.49858374  0.61314089    -0.13400
C242        C  0.22601960  0.48926550  0.59167027     0.00200
C243        C  0.19045338  0.47964017  0.61374410    -0.12000
C244        C  0.19072847  0.48111063  0.65494914     0.02700
C245        C  0.22661985  0.49090822  0.67501152    -0.11400
H246        H  0.28985967  0.50605409  0.59855991     0.08300
H247        H  0.16158377  0.47028872  0.59998047     0.05800
H248        H  0.22690631  0.49165356  0.70687113     0.05700
C249        C  0.25941898  0.49742794  0.98302000     0.02700
C250        C  0.22574321  0.49499915  0.96389834    -0.13400
C251        C  0.19085710  0.48707587  0.98503819     0.00200
C252        C  0.19170205  0.48621578  0.52620960    -0.12000
C253        C  0.22584853  0.49008025  0.54699626     0.02700
C254        C  0.25928985  0.49433952  0.52421457    -0.11400
H255        H  0.22605929  0.49731939  0.93213121     0.08300
H256        H  0.16480121  0.48193310  0.54111099     0.05800
H257        H  0.28522611  0.49459248  0.53752042     0.05700
C258        C  0.45142923  0.21948010  0.65860881     0.02700
C259        C  0.44847174  0.21964032  0.61740171    -0.13400
C260        C  0.45244892  0.19060057  0.59375699     0.00200
C261        C  0.45993068  0.16192461  0.61353774    -0.12000
C262        C  0.46008550  0.15987609  0.65456929     0.02700
C263        C  0.45510702  0.18839012  0.67679667    -0.11400
H264        H  0.44470865  0.24360902  0.60460986     0.08300
H265        H  0.46779769  0.14184898  0.59812501     0.05800
H266        H  0.45682532  0.18810240  0.70861689     0.05700
C267        C  0.44882682  0.22294216  0.98692955     0.02700
C268        C  0.44999213  0.22311608  0.52825487    -0.13400
C269        C  0.45052740  0.19088518  0.54914051     0.00200
C270        C  0.45102271  0.15936412  0.52652908    -0.12000
C271        C  0.45000854  0.15891478  0.98538301     0.02700
C272        C  0.44751135  0.19024835  0.96600415    -0.11400
H273        H  0.45240583  0.24956721  0.54313489     0.08300
H274        H  0.45409658  0.13548396  0.53999291     0.05800
H275        H  0.44728028  0.19074288  0.93412900     0.05700
O276        O  0.40678324  0.02421065  0.77366500    -0.88600
C277        C  0.10867394  0.08661116  0.88136871     1.11500
O278        O  0.44649656  0.48159394  0.81885785    -1.36400
O279        O  0.08798733  0.09689294  0.77935740    -0.90100
O280        O  0.36867883  0.45607199  0.76966236    -0.90700
O281        O  0.44492494  0.43583831  0.73617147    -0.79600
O282        O  0.49667004  0.06152715  0.78295347    -1.01600
C283        C  0.05813504  0.46836461  0.75045881     1.21500
O284        O  0.48190743  0.43164930  0.82096810    -1.36500
Mn285      Mn  0.48471232  0.47643492  0.86341570     1.82100
O286        O  0.02872820  0.47215734  0.73924131    -0.78600
O287        O  0.11508473  0.05620846  0.78001925    -0.88000
C288        C  0.05389766  0.46856314  0.89468819     1.12600
C289        C  0.11371252  0.08688930  0.76699396     1.07300
O290        O  0.43858104  0.43594093  0.90268367    -0.79600
O291        O  0.03081158  0.01619938  0.82165593    -1.33300
O292        O  0.40215250  0.40245099  0.85466294    -0.98800
C293        C  0.47383429  0.34944231  0.76579967     1.06000
Mn294      Mn  0.08535809  0.01251908  0.82330199     1.48600
O295        O  0.44125719  0.34751169  0.77826165    -0.88000
Mn296      Mn  0.38691118  0.43134578  0.81615341     1.49600
O297        O  0.40329805  0.02286752  0.86119918    -0.91900
C298        C  0.49560912  0.05430779  0.74785056     1.19200
C299        C  0.37251385  0.48970742  0.87251987     1.11300
Mn300      Mn  0.48762407  0.47643054  0.77783548     1.81000
O301        O  0.05949106  0.46690583  0.85961062    -0.97000
Mn302      Mn  0.44938133  0.03954361  0.81846744     1.49300
C303        C  0.37824878  0.49195638  0.75822768     1.07800
Mn304      Mn  0.03200133  0.42133127  0.82247244     1.49900
C305        C  0.47185377  0.35142649  0.87947358     1.10700
O306        O  0.40533674  0.40193457  0.78203377    -1.02800
O307        O  0.11255993  0.05719363  0.86770031    -0.92500
C308        C  0.41211060  0.40578540  0.74703071     1.22000
O309        O  0.06270152  0.46658636  0.78577155    -1.03200
O310        O  0.08303861  0.09591923  0.86794403    -0.90600
O311        O  0.00690728  0.37692718  0.86650458    -0.90200
O312        O  0.36384980  0.45525596  0.85796788    -0.90200
Mn313      Mn  0.04073692  0.07653487  0.82164401     1.47900
O314        O  0.02401374  0.47231515  0.90501240    -0.78700
C315        C  0.40643623  0.40589892  0.89005694     1.15000
O316        O  0.49248325  0.02085333  0.73748188    -0.77400
O317        O  0.48618571  0.02067457  0.90311345    -0.77000
Mn318      Mn  0.42470707  0.37718060  0.82025112     1.51100
O319        O  0.00885070  0.37587661  0.77845322    -0.89400
O320        O  0.49339050  0.06028336  0.85641039    -0.96900
O321        O  0.43947748  0.34918234  0.86593294    -0.91900
C322        C  0.48896480  0.05346488  0.89146044     1.12800
C323        C  0.45296977  0.06384372  0.94841977    -0.09600
C324        C  0.48108532  0.08058656  0.91743012     0.06600
C325        C  0.99832620  0.12266644  0.90939509    -0.03300
C326        C  0.98774707  0.14683568  0.93209161    -0.07800
C327        C  0.45886479  0.13026117  0.96240456     0.05800
C328        C  0.44138358  0.08801132  0.97059732    -0.02800
Br329      Br  0.39965037  0.06046074  0.00945314    -0.02500
H330        H  0.43861728  0.03142758  0.95437401     0.09700
H331        H  0.00282661  0.17927958  0.92610153     0.07700
Br332      Br  0.03853330  0.15033303  0.86940803    -0.02900
C333        C  0.99273997  0.28137435  0.94437757    -0.09600
C334        C  0.45578714  0.25948559  0.96451543     0.06600
C335        C  0.42540148  0.27011397  0.95912634    -0.03300
C336        C  0.43179566  0.30112782  0.93254924    -0.07800
C337        C  0.46828378  0.32209693  0.91080254     0.05800
C338        C  0.99931792  0.31217010  0.91779548    -0.02800
Br339      Br  0.05024268  0.33583269  0.89005235    -0.02500
H340        H  0.01620929  0.27318342  0.94821830     0.09700
H341        H  0.40761560  0.30809067  0.92819667     0.07700
Br342      Br  0.37390615  0.24137680  0.98545813    -0.02900
C343        C  0.00238995  0.14903302  0.70290581    -0.09600
C344        C  0.47141718  0.13205138  0.67465204     0.06600
C345        C  0.45198949  0.08953778  0.66725885    -0.03300
C346        C  0.46275700  0.06499701  0.68931858    -0.07800
C347        C  0.49197526  0.08191725  0.71945746     0.05800
C348        C  0.01232871  0.12463579  0.72551022    -0.02800
Br349      Br  0.05359595  0.15248697  0.76443053    -0.02500
H350        H  0.01848697  0.18172919  0.70815943     0.09700
H351        H  0.44624837  0.03222002  0.68467944     0.07700
Br352      Br  0.40808316  0.06273724  0.63036977    -0.02900
C353        C  0.99354437  0.27567239  0.70482081    -0.09600
C354        C  0.45739299  0.25479651  0.68302377     0.06600
C355        C  0.42741975  0.26619308  0.68740551    -0.03300
C356        C  0.43392371  0.29777998  0.71360475    -0.07800
C357        C  0.47004999  0.31857899  0.73594469     0.05800
C358        C  0.99997542  0.30679057  0.73133158    -0.02800
Br359      Br  0.04835099  0.32798365  0.76294038    -0.02500
H360        H  0.01656649  0.26667671  0.70210370     0.09700
H361        H  0.40995868  0.30524225  0.71732791     0.07700
Br362      Br  0.37593174  0.23736694  0.66095137    -0.02900
C363        C  0.28827559  0.45931185  0.94966229    -0.09600
C364        C  0.29172472  0.49709112  0.95873826     0.06600
C365        C  0.32204007  0.53239196  0.94021032    -0.03300
C366        C  0.34884877  0.52949465  0.91348599    -0.07800
C367        C  0.34504029  0.49138499  0.90335870     0.05800
C368        C  0.31377421  0.45585623  0.92191130    -0.02800
Br369      Br  0.30137350  0.40089591  0.91027362    -0.02500
H370        H  0.26411928  0.43189336  0.46299485     0.09700
H371        H  0.37196550  0.05719291  0.89969132     0.07700
Br372      Br  0.32717790  0.08493814  0.94985189    -0.02900
C373        C  0.13136391  0.49825981  0.97695106    -0.09600
C374        C  0.15306910  0.47895896  0.96414785     0.06600
C375        C  0.13783431  0.45166641  0.93188845    -0.03400
C376        C  0.10448050  0.44771558  0.91086865    -0.07800
C377        C  0.08392313  0.46850809  0.92245170     0.05800
C378        C  0.09649068  0.49240443  0.95706827    -0.02800
Br379      Br  0.06860767  0.01896204  0.97802929    -0.02500
H380        H  0.14192888  0.01860831  0.50218868     0.09700
H381        H  0.09471863  0.42842182  0.88487445     0.07700
Br382      Br  0.15949245  0.41712066  0.91614710    -0.02900
C383        C  0.31164484  0.47554821  0.66854380    -0.09600
C384        C  0.29734496  0.50274361  0.67679489     0.06600
C385        C  0.31441039  0.53020706  0.70865056    -0.03300
C386        C  0.34175660  0.52698559  0.73395657    -0.07800
C387        C  0.35335696  0.49726177  0.72768226     0.05800
C388        C  0.33993066  0.47321526  0.69322273    -0.02800
Br389      Br  0.36180360  0.43973386  0.67629713    -0.02500
H390        H  0.30005789  0.45531669  0.64326496     0.09700
H391        H  0.35314258  0.04714038  0.75930483     0.07700
Br392      Br  0.30215354  0.07320043  0.71822516    -0.02900
C393        C  0.10649279  0.44467986  0.73168205    -0.09600
C394        C  0.08831343  0.46827190  0.72260673     0.06600
C395        C  0.10182389  0.49344787  0.68904281    -0.03300
C396        C  0.13453781  0.49645097  0.66696003    -0.07800
C397        C  0.15376342  0.47405196  0.67703226     0.05800
C398        C  0.13828825  0.44671423  0.70887182    -0.02800
Br399      Br  0.15799640  0.41004227  0.72148399    -0.02500
H400        H  0.09594138  0.42454770  0.75683196     0.09700
H401        H  0.14582179  0.01737721  0.64241811     0.07700
Br402      Br  0.07905744  0.02667467  0.67325386    -0.02900
C403        C  0.37352774  0.38017363  0.95591430    -0.09600
C404        C  0.37681066  0.37262838  0.91589115     0.06600
C405        C  0.35156145  0.33255064  0.90107948    -0.03300
C406        C  0.32653382  0.30131659  0.92638093    -0.07800
C407        C  0.32098037  0.30871675  0.96582763     0.05800
C408        C  0.34487340  0.34926230  0.98051062    -0.02800
Br409      Br  0.33803148  0.36632577  0.53199531    -0.02500
H410        H  0.39184676  0.41080058  0.96764667     0.09700
H411        H  0.31044493  0.27069862  0.91427116     0.07700
Br412      Br  0.34752430  0.31632145  0.84664794    -0.02900
C413        C  0.15461110  0.15883422  0.96906933    -0.09600
C414        C  0.19600251  0.17280609  0.96327313     0.06600
C415        C  0.20804934  0.15490688  0.93332879    -0.03300
C416        C  0.17884713  0.12537950  0.90824611    -0.07800
C417        C  0.13740728  0.11316293  0.91234018     0.05800
C418        C  0.12543321  0.12932792  0.94405409    -0.02800
Br419      Br  0.07004664  0.11138533  0.95660736    -0.02500
H420        H  0.14500540  0.17165744  0.99263637     0.09700
H421        H  0.18879233  0.11303011  0.88453985     0.07700
Br422      Br  0.26396457  0.16945137  0.92576099    -0.02900
C423        C  0.34096412  0.35419345  0.73290200    -0.09600
C424        C  0.38171696  0.37467412  0.72024064     0.06600
C425        C  0.39179191  0.36276595  0.68447666    -0.03300
C426        C  0.36183818  0.32867338  0.66406923    -0.07800
C427        C  0.32144395  0.30687438  0.67798419     0.05800
C428        C  0.31084426  0.32140516  0.71179854    -0.02800
Br429      Br  0.25567044  0.30010637  0.72951903    -0.02500
H430        H  0.33229675  0.36404987  0.75946179     0.09700
H431        H  0.37045789  0.31856869  0.63767395     0.07700
Br432      Br  0.44590285  0.39005944  0.66316897    -0.02900
C433        C  0.13309201  0.13314600  0.70889915    -0.09600
C434        C  0.14379871  0.11244800  0.73641838     0.06600
C435        C  0.18365516  0.11788423  0.73485903    -0.03300
C436        C  0.21195014  0.14488920  0.70764578    -0.07800
C437        C  0.20152141  0.16650682  0.68119236     0.05800
C438        C  0.16138221  0.15981118  0.68145300    -0.02800
Br439      Br  0.14442362  0.18867415  0.64705790    -0.02500
H440        H  0.10264247  0.12895765  0.70898076     0.09700
H441        H  0.24281005  0.15011160  0.70797227     0.07700
Br442      Br  0.20313485  0.09241306  0.77088128    -0.02900
C443        C  0.23409265  0.69989604  0.15774794     0.02700
C444        C  0.26463524  0.73395659  0.17748085    -0.13400
C445        C  0.29118077  0.76938888  0.15685620     0.00200
C446        C  0.28882464  0.76927063  0.11578804    -0.12000
C447        C  0.26144694  0.73390502  0.09449160     0.02700
C448        C  0.23351699  0.69927004  0.11642103    -0.11400
H449        H  0.26653253  0.73337673  0.20922634     0.08300
H450        H  0.30796578  0.79776127  0.10104291     0.05800
H451        H  0.21071618  0.67165157  0.10235854     0.05700
C452        C  0.22639618  0.70722019  0.48734407     0.02700
C453        C  0.22820484  0.70401988  0.02813973    -0.13400
C454        C  0.26066178  0.73496121  0.05009801     0.00200
C455        C  0.29258267  0.76750700  0.02884857    -0.12000
C456        C  0.28851098  0.77356375  0.48872769     0.02700
C457        C  0.25398878  0.74340301  0.46884611    -0.11400
H458        H  0.20425032  0.67699597  0.04175047     0.08300
H459        H  0.32116569  0.78766700  0.04293279     0.05800
H460        H  0.24904673  0.74680363  0.43809366     0.05700
C461        C  0.26187223  0.99871110  0.15450194     0.02700
C462        C  0.26168286  0.99858369  0.11314088    -0.13400
C463        C  0.22601961  0.98926539  0.09167027     0.00200
C464        C  0.19045339  0.97964005  0.11374410    -0.12000
C465        C  0.19072851  0.98111059  0.15494914     0.02700
C466        C  0.22661990  0.99090824  0.17501150    -0.11400
H467        H  0.28985970  0.00605404  0.09855989     0.08300
H468        H  0.16158376  0.97028854  0.09998048     0.05800
H469        H  0.22690638  0.99165364  0.20687112     0.05700
C470        C  0.25941894  0.99742804  0.48301990     0.02700
C471        C  0.22574315  0.99499919  0.46389825    -0.13400
C472        C  0.19085698  0.98707573  0.48503809     0.00200
C473        C  0.19170206  0.98621573  0.02620961    -0.12000
C474        C  0.22584853  0.99008014  0.04699626     0.02700
C475        C  0.25928984  0.99433938  0.02421456    -0.11400
H476        H  0.22605924  0.99731950  0.43213112     0.08300
H477        H  0.16480126  0.98193311  0.04111102     0.05800
H478        H  0.28522608  0.99459231  0.03752040     0.05700
C479        C  0.45142937  0.71948022  0.15860885     0.02700
C480        C  0.44847187  0.71964044  0.11740175    -0.13400
C481        C  0.45244889  0.69060057  0.09375702     0.00200
C482        C  0.45993051  0.66192453  0.11353779    -0.12000
C483        C  0.46008543  0.65987609  0.15456935     0.02700
C484        C  0.45510707  0.68839019  0.17679672    -0.11400
H485        H  0.44470892  0.74360921  0.10460990     0.08300
H486        H  0.46779734  0.64184876  0.09812509     0.05800
H487        H  0.45682539  0.68810249  0.20861694     0.05700
C488        C  0.44882697  0.72294222  0.48692959     0.02700
C489        C  0.44999185  0.72311595  0.02825489    -0.13400
C490        C  0.45052733  0.69088515  0.04914053     0.00200
C491        C  0.45102284  0.65936420  0.02652910    -0.12000
C492        C  0.45000861  0.65891481  0.48538306     0.02700
C493        C  0.44751144  0.69024838  0.46600419    -0.11400
H494        H  0.45240536  0.74956700  0.04313490     0.08300
H495        H  0.45409693  0.63548416  0.03999290     0.05800
H496        H  0.44728034  0.69074289  0.43412904     0.05700
O497        O  0.40678325  0.52421074  0.27366516    -0.88600
C498        C  0.10867402  0.58661109  0.38136871     1.11500
O499        O  0.44649658  0.98159396  0.31885787    -1.36400
O500        O  0.08798741  0.59689294  0.27935740    -0.90100
O501        O  0.36867885  0.95607202  0.26966238    -0.90700
O502        O  0.44492497  0.93583834  0.23617150    -0.79600
O503        O  0.49667005  0.56152721  0.28295355    -1.01600
C504        C  0.05813506  0.96836462  0.25045879     1.21500
O505        O  0.48190745  0.93164933  0.32096814    -1.36500
Mn506      Mn  0.48471234  0.97643494  0.36341573     1.82100
O507        O  0.02872822  0.97215732  0.23924126    -0.78600
O508        O  0.11508481  0.55620846  0.28001927    -0.88000
C509        C  0.05389758  0.96856307  0.39468814     1.12600
C510        C  0.11371260  0.58688930  0.26699397     1.07300
O511        O  0.43858106  0.93594096  0.40268369    -0.79600
O512        O  0.03081162  0.51619939  0.32165591    -1.33300
O513        O  0.40215251  0.90245102  0.35466297    -0.98800
C514        C  0.47383433  0.84944236  0.26579973     1.06000
Mn515      Mn  0.08535811  0.51251904  0.32330197     1.48600
O516        O  0.44125722  0.84751174  0.27826168    -0.88000
Mn517      Mn  0.38691119  0.93134581  0.31615343     1.49600
O518        O  0.40329812  0.52286756  0.36119930    -0.91900
C519        C  0.49560911  0.55430784  0.24785064     1.19200
C520        C  0.37251386  0.98970747  0.37251985     1.11300
Mn521      Mn  0.48762410  0.97643056  0.27783551     1.81000
O522        O  0.05949099  0.96690579  0.35961057    -0.97000
Mn523      Mn  0.44938136  0.53954366  0.31846754     1.49300
C524        C  0.37824881  0.99195641  0.25822770     1.07800
Mn525      Mn  0.03200128  0.92133125  0.32247238     1.49900
C526        C  0.47185379  0.85142651  0.37947361     1.10700
O527        O  0.40533675  0.90193459  0.28203378    -1.02800
O528        O  0.11255997  0.55719354  0.36770032    -0.92500
C529        C  0.41211062  0.90578543  0.24703073     1.22000
O530        O  0.06270151  0.96658635  0.28577152    -1.03200
O531        O  0.08303872  0.59591920  0.36794403    -0.90600
O532        O  0.00690719  0.87692715  0.36650452    -0.90200
O533        O  0.36384982  0.95525600  0.35796789    -0.90200
Mn534      Mn  0.04073701  0.57653490  0.32164402     1.47900
O535        O  0.02401368  0.97231511  0.40501235    -0.78700
C536        C  0.40643625  0.90589894  0.39005696     1.15000
O537        O  0.49248327  0.52085339  0.23748194    -0.77400
O538        O  0.48618574  0.52067458  0.40311352    -0.77000
Mn539      Mn  0.42470709  0.87718062  0.32025115     1.51100
O540        O  0.00885064  0.87587660  0.27845316    -0.89400
O541        O  0.49339054  0.56028337  0.35641046    -0.96900
O542        O  0.43947750  0.84918235  0.36593296    -0.91900
C543        C  0.48896485  0.55346490  0.39146051     1.12800
C544        C  0.45296992  0.56384376  0.44841991    -0.09600
C545        C  0.48108537  0.58058658  0.41743019     0.06600
C546        C  0.99832643  0.62266654  0.40939510    -0.03300
C547        C  0.98774736  0.64683583  0.43209161    -0.07800
C548        C  0.45886485  0.63026119  0.46240463     0.05800
C549        C  0.44138372  0.58801136  0.47059746    -0.02800
Br550      Br  0.39965058  0.56046077  0.50945334    -0.02500
H551        H  0.43861750  0.53142764  0.45437421     0.09700
H552        H  0.00282689  0.67927972  0.42610149     0.07700
Br553      Br  0.03853347  0.65033307  0.36940797    -0.02900
C554        C  0.99274002  0.78137449  0.44437763    -0.09600
C555        C  0.45578726  0.75948563  0.46451545     0.06600
C556        C  0.42540152  0.77011390  0.45912628    -0.03300
C557        C  0.43179567  0.80112773  0.43254918    -0.07800
C558        C  0.46828382  0.82209693  0.41080254     0.05800
C559        C  0.99931793  0.81217019  0.41779551    -0.02800
Br560      Br  0.05024269  0.83583282  0.39005239    -0.02500
H561        H  0.01620938  0.77318362  0.44821840     0.09700
H562        H  0.40761556  0.80809050  0.42819657     0.07700
Br563      Br  0.37390614  0.74137654  0.48545796    -0.02900
C564        C  0.00239002  0.64903311  0.20290582    -0.09600
C565        C  0.47141710  0.63205137  0.17465211     0.06600
C566        C  0.45198934  0.58953776  0.16725899    -0.03300
C567        C  0.46275686  0.56499700  0.18931872    -0.07800
C568        C  0.49197520  0.58191727  0.21945753     0.05800
C569        C  0.01232879  0.62463589  0.22551021    -0.02800
Br570      Br  0.05359612  0.65248707  0.26443045    -0.02500
H571        H  0.01848706  0.68172929  0.20815941     0.09700
H572        H  0.44624819  0.53222000  0.18467964     0.07700
Br573      Br  0.40808294  0.56273721  0.13036999    -0.02900
C574        C  0.99354436  0.77567258  0.20482049    -0.09600
C575        C  0.45739312  0.75479662  0.18302382     0.06600
C576        C  0.42741991  0.76619323  0.18740549    -0.03300
C577        C  0.43392384  0.79778011  0.21360473    -0.07800
C578        C  0.47005005  0.81857904  0.23594477     0.05800
C579        C  0.99997545  0.80679078  0.23133126    -0.02800
Br580      Br  0.04835131  0.82798418  0.26293965    -0.02500
H581        H  0.01656658  0.76667706  0.20210318     0.09700
H582        H  0.40995883  0.80524242  0.21732783     0.07700
Br583      Br  0.37593194  0.73736714  0.16095126    -0.02900
C584        C  0.28827556  0.95931194  0.44966222    -0.09600
C585        C  0.29172469  0.99709122  0.45873816     0.06600
C586        C  0.32204004  0.03239205  0.44021021    -0.03300
C587        C  0.34884875  0.02949473  0.41348590    -0.07800
C588        C  0.34504028  0.99138506  0.40335865     0.05800
C589        C  0.31377420  0.95585632  0.42191126    -0.02800
Br590      Br  0.30137354  0.90089599  0.41027365    -0.02500
H591        H  0.26411931  0.93189329  0.96299483     0.09700
H592        H  0.37196560  0.55719296  0.39969143     0.07700
Br593      Br  0.32717797  0.58493822  0.44985192    -0.02900
C594        C  0.13136367  0.99825948  0.47695110    -0.09600
C595        C  0.15306897  0.97895880  0.46414777     0.06600
C596        C  0.13783429  0.95166638  0.43188826    -0.03400
C597        C  0.10448048  0.94771557  0.41086848    -0.07800
C598        C  0.08392301  0.96850795  0.42245164     0.05800
C599        C  0.09649044  0.99240411  0.45706832    -0.02800
Br600      Br  0.06860741  0.51896171  0.47802936    -0.02500
H601        H  0.14192920  0.51860875  0.00218855     0.09700
H602        H  0.09471869  0.92842193  0.38487419     0.07700
Br603      Br  0.15949258  0.91712082  0.41614673    -0.02900
C604        C  0.31164499  0.97554833  0.16854376    -0.09600
C605        C  0.29734501  0.00274365  0.17679489     0.06600
C606        C  0.31441034  0.03020702  0.20865064    -0.03300
C607        C  0.34175652  0.02698554  0.23395666    -0.07800
C608        C  0.35335698  0.99726180  0.22768229     0.05800
C609        C  0.33993080  0.97321538  0.19322270    -0.02800
Br610      Br  0.36180390  0.93973414  0.17629706    -0.02500
H611        H  0.30005812  0.95531687  0.14326487     0.09700
H612        H  0.35314240  0.54714035  0.25930520     0.07700
Br613      Br  0.30215340  0.57320048  0.21822557    -0.02900
C614        C  0.10649290  0.94467993  0.23168211    -0.09600
C615        C  0.08831349  0.96827193  0.22260674     0.06600
C616        C  0.10182396  0.99344788  0.18904281    -0.03300
C617        C  0.13453785  0.99645093  0.16696002    -0.07800
C618        C  0.15376347  0.97405195  0.17703227     0.05800
C619        C  0.13828837  0.94671430  0.20887190    -0.02800
Br620      Br  0.15799665  0.91004248  0.22148423    -0.02500
H621        H  0.09594153  0.92454784  0.25683208     0.09700
H622        H  0.14582176  0.51737708  0.14241804     0.07700
Br623      Br  0.07905756  0.52667473  0.17325385    -0.02900
C624        C  0.37352776  0.88017363  0.45591432    -0.09600
C625        C  0.37681069  0.87262840  0.41589118     0.06600
C626        C  0.35156151  0.83255065  0.40107950    -0.03300
C627        C  0.32653390  0.80131660  0.42638095    -0.07800
C628        C  0.32098044  0.80871674  0.46582765     0.05800
C629        C  0.34487344  0.84926229  0.48051065    -0.02800
Br630      Br  0.33803153  0.86632578  0.03199532    -0.02500
H631        H  0.39184676  0.91080058  0.46764670     0.09700
H632        H  0.31044503  0.77069862  0.41427117     0.07700
Br633      Br  0.34752436  0.81632147  0.34664796    -0.02900
C634        C  0.15461125  0.65883409  0.46906936    -0.09600
C635        C  0.19600266  0.67280601  0.46327308     0.06600
C636        C  0.20804948  0.65490686  0.43332866    -0.03300
C637        C  0.17884724  0.62537947  0.40824601    -0.07800
C638        C  0.13740739  0.61316284  0.41234016     0.05800
C639        C  0.12543334  0.62932780  0.44405413    -0.02800
Br640      Br  0.07004678  0.61138518  0.45660745    -0.02500
H641        H  0.14500557  0.67165727  0.49263644     0.09700
H642        H  0.18879243  0.61303012  0.38453970     0.07700
Br643      Br  0.26396472  0.66945147  0.42576070    -0.02900
C644        C  0.34096413  0.85419353  0.23290196    -0.09600
C645        C  0.38171698  0.87467418  0.22024063     0.06600
C646        C  0.39179193  0.86276600  0.18447666    -0.03300
C647        C  0.36183821  0.82867345  0.16406921    -0.07800
C648        C  0.32144397  0.80687447  0.17798415     0.05800
C649        C  0.31084427  0.82140526  0.21179849    -0.02800
Br650      Br  0.25567044  0.80010650  0.22951891    -0.02500
H651        H  0.33229674  0.86404996  0.25946174     0.09700
H652        H  0.37045792  0.81856875  0.13767393     0.07700
Br653      Br  0.44590290  0.89005946  0.16316902    -0.02900
C654        C  0.13309202  0.63314589  0.20889909    -0.09600
C655        C  0.14379879  0.61244800  0.23641839     0.06600
C656        C  0.18365527  0.61788432  0.23485909    -0.03300
C657        C  0.21195025  0.64488933  0.20764585    -0.07800
C658        C  0.20152146  0.66650685  0.18119236     0.05800
C659        C  0.16138220  0.65981105  0.18145290    -0.02800
Br660      Br  0.14442346  0.68867374  0.14705760    -0.02500
H661        H  0.10264245  0.62895744  0.20898064     0.09700
H662        H  0.24281019  0.65011181  0.20797240     0.07700
Br663      Br  0.20313499  0.59241321  0.27088137    -0.02900
C664        C  0.23409250  0.69989584  0.65774802     0.02700
C665        C  0.26463509  0.73395635  0.67748097    -0.13400
C666        C  0.29118065  0.76938867  0.65685636     0.00200
C667        C  0.28882452  0.76927048  0.61578821    -0.12000
C668        C  0.26144685  0.73390489  0.59449173     0.02700
C669        C  0.23351688  0.69926988  0.61642111    -0.11400
H670        H  0.26653239  0.73337641  0.70922646     0.08300
H671        H  0.30796567  0.79776113  0.60104310     0.05800
H672        H  0.21071607  0.67165143  0.60235860     0.05700
C673        C  0.22639618  0.70722025  0.98734397     0.02700
C674        C  0.22820481  0.70401980  0.52813983    -0.13400
C675        C  0.26066173  0.73496111  0.55009813     0.00200
C676        C  0.29258265  0.76750692  0.52884872    -0.12000
C677        C  0.28851097  0.77356383  0.98872755     0.02700
C678        C  0.25398877  0.74340306  0.96884598    -0.11400
H679        H  0.20425027  0.67699587  0.54175054     0.08300
H680        H  0.32116564  0.78766691  0.54293297     0.05800
H681        H  0.24904671  0.74680365  0.93809353     0.05700
C682        C  0.26187230  0.99871117  0.65450179     0.02700
C683        C  0.26168291  0.99858380  0.61314074    -0.13400
C684        C  0.22601966  0.98926560  0.59167015     0.00200
C685        C  0.19045347  0.97964029  0.61374402    -0.12000
C686        C  0.19072859  0.98111074  0.65494905     0.02700
C687        C  0.22661999  0.99090832  0.67501140    -0.11400
H688        H  0.28985973  0.00605411  0.59855973     0.08300
H689        H  0.16158384  0.97028887  0.59998043     0.05800
H690        H  0.22690649  0.99165368  0.70687101     0.05700
C691        C  0.25941895  0.99742768  0.98302005     0.02700
C692        C  0.22574324  0.99499899  0.96389838    -0.13400
C693        C  0.19085710  0.98707568  0.98503818     0.00200
C694        C  0.19170198  0.98621577  0.52620952    -0.12000
C695        C  0.22584855  0.99008038  0.54699614     0.02700
C696        C  0.25928990  0.99433980  0.52421440    -0.11400
H697        H  0.22605938  0.99731933  0.93213125     0.08300
H698        H  0.16480110  0.98193295  0.54111093     0.05800
H699        H  0.28522623  0.99459287  0.53752020     0.05700
C700        C  0.45142947  0.71948029  0.65860884     0.02700
C701        C  0.44847205  0.71964052  0.61740174    -0.13400
C702        C  0.45244880  0.69060048  0.59375706     0.00200
C703        C  0.45993011  0.66192424  0.61353789    -0.12000
C704        C  0.46008511  0.65987590  0.65456946     0.02700
C705        C  0.45510697  0.68839018  0.67679677    -0.11400
H706        H  0.44470935  0.74360944  0.60460987     0.08300
H707        H  0.46779663  0.64184822  0.59812525     0.05800
H708        H  0.45682530  0.68810253  0.70861699     0.05700
C709        C  0.44882727  0.72294246  0.98692959     0.02700
C710        C  0.44999157  0.72311574  0.52825489    -0.13400
C711        C  0.45052729  0.69088507  0.54914055     0.00200
C712        C  0.45102306  0.65936426  0.52652912    -0.12000
C713        C  0.45000860  0.65891487  0.98538304     0.02700
C714        C  0.44751166  0.69024858  0.96600418    -0.11400
H715        H  0.45240491  0.74956673  0.54313486     0.08300
H716        H  0.45409754  0.63548442  0.53999286     0.05800
H717        H  0.44728066  0.69074315  0.93412903     0.05700
O718        O  0.40678321  0.52421070  0.77366513    -0.88600
C719        C  0.10867396  0.58661097  0.88136875     1.11500
O720        O  0.44649664  0.98159398  0.81885778    -1.36400
O721        O  0.08798729  0.59689277  0.77935745    -0.90100
O722        O  0.36867888  0.95607193  0.76966225    -0.90700
O723        O  0.44492502  0.93583828  0.73617140    -0.79600
O724        O  0.49667000  0.56152712  0.78295358    -1.01600
C725        C  0.05813520  0.96836476  0.75045878     1.21500
O726        O  0.48190758  0.93164941  0.82096807    -1.36500
Mn727      Mn  0.48471243  0.97643502  0.86341564     1.82100
O728        O  0.02872832  0.97215740  0.73924126    -0.78600
O729        O  0.11508465  0.55620826  0.78001933    -0.88000
C730        C  0.05389783  0.96856336  0.89468816     1.12600
C731        C  0.11371245  0.58688909  0.76699401     1.07300
O732        O  0.43858116  0.93594104  0.90268364    -0.79600
O733        O  0.03081151  0.51619926  0.82165601    -1.33300
O734        O  0.40215266  0.90245108  0.85466290    -0.98800
C735        C  0.47383456  0.84944248  0.76579969     1.06000
Mn736      Mn  0.08535797  0.51251886  0.82330204     1.48600
O737        O  0.44125744  0.84751181  0.77826168    -0.88000
Mn738      Mn  0.38691128  0.93134580  0.81615335     1.49600
O739        O  0.40329806  0.52286753  0.86119928    -0.91900
C740        C  0.49560904  0.55430775  0.74785067     1.19200
C741        C  0.37251387  0.98970740  0.87251978     1.11300
Mn742      Mn  0.48762416  0.97643059  0.77783541     1.81000
O743        O  0.05949123  0.96690607  0.85961059    -0.97000
Mn744      Mn  0.44938131  0.53954360  0.81846755     1.49300
C745        C  0.37824882  0.99195631  0.75822755     1.07800
Mn746      Mn  0.03200158  0.92133149  0.82247243     1.49900
C747        C  0.47185403  0.85142668  0.87947359     1.10700
O748        O  0.40533691  0.90193461  0.78203376    -1.02800
O749        O  0.11255989  0.55719340  0.86770038    -0.92500
C750        C  0.41211071  0.90578537  0.74703070     1.22000
O751        O  0.06270170  0.96658657  0.78577151    -1.03200
O752        O  0.08303866  0.59591908  0.86794408    -0.90600
O753        O  0.00690760  0.87692742  0.86650459    -0.90200
O754        O  0.36384987  0.95525595  0.85796779    -0.90200
Mn755      Mn  0.04073692  0.57653477  0.82164409     1.47900
O756        O  0.02401390  0.97231535  0.90501237    -0.78700
C757        C  0.40643636  0.90589902  0.89005690     1.15000
O758        O  0.49248319  0.52085330  0.73748197    -0.77400
O759        O  0.48618563  0.52067448  0.90311355    -0.77000
Mn760      Mn  0.42470726  0.87718068  0.82025113     1.51100
O761        O  0.00885101  0.87587682  0.77845324    -0.89400
O762        O  0.49339049  0.56028330  0.85641050    -0.96900
O763        O  0.43947772  0.84918248  0.86593298    -0.91900
C764        C  0.48896477  0.55346482  0.89146054     1.12800
C765        C  0.45296967  0.56384369  0.94841981    -0.09600
C766        C  0.48108530  0.58058652  0.91743023     0.06600
C767        C  0.99832629  0.62266640  0.90939526    -0.03300
C768        C  0.98774719  0.64683566  0.93209178    -0.07800
C769        C  0.45886479  0.63026120  0.96240461     0.05800
C770        C  0.44138348  0.58801132  0.97059733    -0.02800
Br771      Br  0.39965011  0.56046074  0.00945301    -0.02500
H772        H  0.43861711  0.53142754  0.95437403     0.09700
H773        H  0.00282682  0.67927958  0.92610174     0.07700
Br774      Br  0.03853345  0.65033299  0.86940823    -0.02900
C775        C  0.99274040  0.78137452  0.94437742    -0.09600
C776        C  0.45578760  0.75948589  0.96451547     0.06600
C777        C  0.42540199  0.77011439  0.95912656    -0.03300
C778        C  0.43179611  0.80112820  0.93254943    -0.07800
C779        C  0.46828412  0.82209716  0.91080255     0.05800
C780        C  0.99931830  0.81217024  0.91779531    -0.02800
Br781      Br  0.05024286  0.83583260  0.89005186    -0.02500
H782        H  0.01620967  0.77318349  0.94821800     0.09700
H783        H  0.40761609  0.80809113  0.92819700     0.07700
Br784      Br  0.37390679  0.74137738  0.98545860    -0.02900
C785        C  0.00238972  0.64903291  0.70290590    -0.09600
C786        C  0.47141675  0.63205117  0.67465226     0.06600
C787        C  0.45198904  0.58953756  0.66725914    -0.03300
C788        C  0.46275666  0.56499684  0.68931882    -0.07800
C789        C  0.49197504  0.58191714  0.71945759     0.05800
C790        C  0.01232854  0.62463572  0.72551029    -0.02800
Br791      Br  0.05359594  0.65248692  0.76443046    -0.02500
H792        H  0.01848681  0.68172910  0.70815946     0.09700
H793        H  0.44624803  0.53221984  0.68467973     0.07700
Br794      Br  0.40808260  0.56273693  0.63037019    -0.02900
C795        C  0.99354473  0.77567260  0.70482084    -0.09600
C796        C  0.45739331  0.75479675  0.68302376     0.06600
C797        C  0.42742015  0.76619344  0.68740537    -0.03300
C798        C  0.43392409  0.79778030  0.71360464    -0.07800
C799        C  0.47005030  0.81857919  0.73594469     0.05800
C800        C  0.99997577  0.80679079  0.73133162    -0.02800
Br801      Br  0.04835132  0.82798385  0.76294044    -0.02500
H802        H  0.01656681  0.76667688  0.70210377     0.09700
H803        H  0.40995910  0.80524263  0.71732774     0.07700
Br804      Br  0.37593225  0.73736751  0.66095101    -0.02900
C805        C  0.28827550  0.95931163  0.94966213    -0.09600
C806        C  0.29172472  0.99709090  0.95873832     0.06600
C807        C  0.32204017  0.03239180  0.94021054    -0.03300
C808        C  0.34884887  0.02949455  0.91348615    -0.07800
C809        C  0.34504029  0.99138490  0.90335864     0.05800
C810        C  0.31377412  0.95585608  0.92191109    -0.02800
Br811      Br  0.30137325  0.90089576  0.91027311    -0.02500
H812        H  0.26411945  0.93189365  0.46299506     0.09700
H813        H  0.37196533  0.55719296  0.89969102     0.07700
Br814      Br  0.32717770  0.58493830  0.94985139    -0.02900
C815        C  0.13136397  0.99825973  0.97695109    -0.09600
C816        C  0.15306915  0.97895890  0.96414782     0.06600
C817        C  0.13783439  0.95166646  0.93188833    -0.03400
C818        C  0.10448061  0.94771571  0.91086855    -0.07800
C819        C  0.08392326  0.96850822  0.92245166     0.05800
C820        C  0.09649079  0.99240446  0.95706830    -0.02800
Br821      Br  0.06860756  0.51896204  0.97802916    -0.02500
H822        H  0.14192908  0.51860845  0.50218868     0.09700
H823        H  0.09471874  0.92842201  0.88487431     0.07700
Br824      Br  0.15949254  0.91712076  0.91614682    -0.02900
C825        C  0.31164485  0.97554814  0.66854366    -0.09600
C826        C  0.29734508  0.00274365  0.67679470     0.06600
C827        C  0.31441058  0.03020713  0.70865033    -0.03300
C828        C  0.34175675  0.02698561  0.73395635    -0.07800
C829        C  0.35335700  0.99726169  0.72768211     0.05800
C830        C  0.33993062  0.97321512  0.69322262    -0.02800
Br831      Br  0.36180329  0.93973346  0.67629714    -0.02500
H832        H  0.30005783  0.95531658  0.64326485     0.09700
H833        H  0.35314237  0.54714031  0.75930508     0.07700
Br834      Br  0.30215323  0.57320028  0.71822544    -0.02900
C835        C  0.10649299  0.94468004  0.73168205    -0.09600
C836        C  0.08831358  0.96827203  0.72260669     0.06600
C837        C  0.10182396  0.99344792  0.68904271    -0.03300
C838        C  0.13453788  0.99645101  0.66695993    -0.07800
C839        C  0.15376355  0.97405208  0.67703220     0.05800
C840        C  0.13828844  0.94671440  0.70887181    -0.02800
Br841      Br  0.15799662  0.91004247  0.72148400    -0.02500
H842        H  0.09594163  0.92454794  0.75683200     0.09700
H843        H  0.14582177  0.51737721  0.64241826     0.07700
Br844      Br  0.07905749  0.52667476  0.67325405    -0.02900
C845        C  0.37352778  0.88017372  0.95591423    -0.09600
C846        C  0.37681076  0.87262848  0.91589109     0.06600
C847        C  0.35156156  0.83255075  0.90107939    -0.03300
C848        C  0.32653389  0.80131669  0.92638082    -0.07800
C849        C  0.32098042  0.80871683  0.96582751     0.05800
C850        C  0.34487343  0.84926237  0.98051053    -0.02800
Br851      Br  0.33803153  0.86632571  0.53199542    -0.02500
H852        H  0.39184680  0.91080066  0.96764662     0.09700
H853        H  0.31044501  0.77069873  0.91427102     0.07700
Br854      Br  0.34752447  0.81632158  0.84664786    -0.02900
C855        C  0.15461125  0.65883424  0.96906922    -0.09600
C856        C  0.19600265  0.67280604  0.96327302     0.06600
C857        C  0.20804944  0.65490673  0.93332874    -0.03300
C858        C  0.17884719  0.62537929  0.90824613    -0.07800
C859        C  0.13740735  0.61316277  0.91234019     0.05800
C860        C  0.12543333  0.62932789  0.94405405    -0.02800
Br861      Br  0.07004679  0.61138540  0.95660733    -0.02500
H862        H  0.14500560  0.67165754  0.99263621     0.09700
H863        H  0.18879236  0.61302981  0.88453991     0.07700
Br864      Br  0.26396466  0.66945121  0.92576093    -0.02900
C865        C  0.34096422  0.85419326  0.73290220    -0.09600
C866        C  0.38171702  0.87467401  0.72024070     0.06600
C867        C  0.39179187  0.86276583  0.68447667    -0.03300
C868        C  0.36183810  0.82867326  0.66406929    -0.07800
C869        C  0.32144390  0.80687422  0.67798435     0.05800
C870        C  0.31084431  0.82140496  0.71179881    -0.02800
Br871      Br  0.25567056  0.80010612  0.72951952    -0.02500
H872        H  0.33229691  0.86404967  0.75946204     0.09700
H873        H  0.37045774  0.81856860  0.63767395     0.07700
Br874      Br  0.44590276  0.89005932  0.66316887    -0.02900
C875        C  0.13309188  0.63314570  0.70889915    -0.09600
C876        C  0.14379862  0.61244775  0.73641840     0.06600
C877        C  0.18365507  0.61788398  0.73485903    -0.03300
C878        C  0.21195005  0.64488901  0.70764580    -0.07800
C879        C  0.20152129  0.66650661  0.68119238     0.05800
C880        C  0.16138205  0.65981086  0.68145296    -0.02800
Br881      Br  0.14442332  0.68867355  0.64705766    -0.02500
H882        H  0.10264232  0.62895730  0.70898073     0.09700
H883        H  0.24280997  0.65011143  0.70797230     0.07700
Br884      Br  0.20313473  0.59241268  0.77088114    -0.02900
C885        C  0.73409250  0.19989596  0.15774804     0.02700
C886        C  0.76463507  0.23395650  0.17748097    -0.13400
C887        C  0.79118060  0.26938882  0.15685633     0.00200
C888        C  0.78882445  0.26927060  0.11578818    -0.12000
C889        C  0.76144679  0.23390498  0.09449172     0.02700
C890        C  0.73351686  0.19926997  0.11642113    -0.11400
H891        H  0.76653238  0.23337661  0.20922646     0.08300
H892        H  0.80796557  0.29776125  0.10104306     0.05800
H893        H  0.71071608  0.17165150  0.10235862     0.05700
C894        C  0.72639616  0.20722028  0.48734399     0.02700
C895        C  0.72820471  0.20401985  0.02813983    -0.13400
C896        C  0.76066164  0.23496118  0.05009812     0.00200
C897        C  0.79258255  0.26750697  0.02884870    -0.12000
C898        C  0.78851096  0.27356385  0.48872756     0.02700
C899        C  0.75398876  0.24340309  0.46884599    -0.11400
H900        H  0.70425018  0.17699594  0.04175056     0.08300
H901        H  0.82116555  0.28766698  0.04293294     0.05800
H902        H  0.74904673  0.24680367  0.43809353     0.05700
C903        C  0.76187237  0.49871128  0.15450184     0.02700
C904        C  0.76168299  0.49858393  0.11314079    -0.13400
C905        C  0.72601972  0.48926565  0.09167020     0.00200
C906        C  0.69045351  0.47964024  0.11374406    -0.12000
C907        C  0.69072863  0.48111072  0.15494910     0.02700
C908        C  0.72662004  0.49090837  0.17501144    -0.11400
H909        H  0.78985983  0.50605431  0.09855977     0.08300
H910        H  0.66158386  0.47028870  0.09998046     0.05800
H911        H  0.72690654  0.49165374  0.20687106     0.05700
C912        C  0.75941897  0.49742771  0.48302009     0.02700
C913        C  0.72574327  0.49499905  0.46389840    -0.13400
C914        C  0.69085714  0.48707579  0.48503820     0.00200
C915        C  0.69170206  0.48621591  0.02620958    -0.12000
C916        C  0.72584860  0.49008041  0.04699620     0.02700
C917        C  0.75928989  0.49433971  0.02421446    -0.11400
H918        H  0.72605941  0.49731937  0.43213127     0.08300
H919        H  0.66480126  0.48193325  0.04111102     0.05800
H920        H  0.78522619  0.49459272  0.03752027     0.05700
C921        C  0.95142960  0.21948036  0.15860879     0.02700
C922        C  0.94847204  0.21964050  0.11740170    -0.13400
C923        C  0.95244882  0.19060048  0.09375701     0.00200
C924        C  0.95993029  0.16192435  0.11353782    -0.12000
C925        C  0.96008539  0.15987606  0.15456939     0.02700
C926        C  0.95510725  0.18839033  0.17679671    -0.11400
H927        H  0.94470920  0.24360935  0.10460984     0.08300
H928        H  0.96779684  0.14184836  0.09812514     0.05800
H929        H  0.95682566  0.18810272  0.20861693     0.05700
C930        C  0.94882747  0.22294257  0.48692958     0.02700
C931        C  0.94999147  0.22311569  0.02825486    -0.13400
C932        C  0.95052716  0.19088500  0.04914051     0.00200
C933        C  0.95102280  0.15936412  0.02652907    -0.12000
C934        C  0.95000875  0.15891496  0.48538302     0.02700
C935        C  0.94751185  0.19024869  0.46600416    -0.11400
H936        H  0.95240490  0.24956671  0.04313483     0.08300
H937        H  0.95409718  0.13548423  0.03999282     0.05800
H938        H  0.94728084  0.19074326  0.43412901     0.05700
O939        O  0.90678331  0.02421080  0.27366506    -0.88600
C940        C  0.60867396  0.08661099  0.38136876     1.11500
O941        O  0.94649667  0.48159403  0.31885780    -1.36400
O942        O  0.58798733  0.09689280  0.27935747    -0.90100
O943        O  0.86867894  0.45607203  0.26966228    -0.90700
O944        O  0.94492505  0.43583836  0.23617140    -0.79600
O945        O  0.99667009  0.06152718  0.28295356    -1.01600
C946        C  0.55813522  0.46836480  0.25045876     1.21500
O947        O  0.98190759  0.43164944  0.32096806    -1.36500
Mn948      Mn  0.98471245  0.47643504  0.36341566     1.82100
O949        O  0.52872835  0.47215746  0.23924124    -0.78600
O950        O  0.61508470  0.05620829  0.28001932    -0.88000
C951        C  0.55389783  0.46856334  0.39468814     1.12600
C952        C  0.61371249  0.08688913  0.26699402     1.07300
O953        O  0.93858117  0.43594104  0.40268363    -0.79600
O954        O  0.53081153  0.01619928  0.32165599    -1.33300
O955        O  0.90215266  0.40245109  0.35466289    -0.98800
C956        C  0.97383457  0.34944253  0.26579963     1.06000
Mn957      Mn  0.58535800  0.01251888  0.32330204     1.48600
O958        O  0.94125744  0.34751185  0.27826162    -0.88000
Mn959      Mn  0.88691131  0.43134585  0.31615335     1.49600
O960        O  0.90329810  0.02286762  0.36119921    -0.91900
C961        C  0.99560914  0.05430781  0.24785065     1.19200
C962        C  0.87251391  0.48970744  0.37251982     1.11300
Mn963      Mn  0.98762420  0.47643065  0.27783543     1.81000
O964        O  0.55949125  0.46690606  0.35961057    -0.97000
Mn965      Mn  0.94938137  0.03954367  0.31846751     1.49300
C966        C  0.87824888  0.49195642  0.25822760     1.07800
Mn967      Mn  0.53200158  0.42133151  0.32247238     1.49900
C968        C  0.97185406  0.35142670  0.37947354     1.10700
O969        O  0.90533691  0.40193466  0.28203374    -1.02800
O970        O  0.61255990  0.05719342  0.36770039    -0.92500
C971        C  0.91211072  0.40578545  0.24703068     1.22000
O972        O  0.56270171  0.46658659  0.28577149    -1.03200
O973        O  0.58303866  0.09591909  0.36794409    -0.90600
O974        O  0.50690759  0.37692743  0.36650450    -0.90200
O975        O  0.86384990  0.45525600  0.35796781    -0.90200
Mn976      Mn  0.54073694  0.07653479  0.32164408     1.47900
O977        O  0.52401390  0.47231532  0.40501235    -0.78700
C978        C  0.90643637  0.40589902  0.39005689     1.15000
O979        O  0.99248326  0.02085334  0.23748196    -0.77400
O980        O  0.98618563  0.02067449  0.40311353    -0.77000
Mn981      Mn  0.92470727  0.37718071  0.32025110     1.51100
O982        O  0.50885103  0.37587687  0.27845317    -0.89400
O983        O  0.99339051  0.06028332  0.35641048    -0.96900
O984        O  0.93947773  0.34918250  0.36593294    -0.91900
C985        C  0.98896478  0.05346483  0.39146052     1.12800
C986        C  0.95296971  0.06384373  0.44841978    -0.09600
C987        C  0.98108535  0.08058655  0.41743020     0.06600
C988        C  0.49832631  0.12266642  0.40939516    -0.03300
C989        C  0.48774725  0.14683571  0.43209168    -0.07800
C990        C  0.95886491  0.13026127  0.46240459     0.05800
C991        C  0.94138355  0.08801139  0.47059729    -0.02800
Br992      Br  0.89965013  0.06046082  0.50945293    -0.02500
H993        H  0.93861711  0.03142758  0.45437398     0.09700
H994        H  0.50282689  0.17927962  0.42610163     0.07700
Br995      Br  0.53853337  0.15033295  0.36940805    -0.02900
C996        C  0.49274053  0.28137461  0.44437729    -0.09600
C997        C  0.95578776  0.25948600  0.46451546     0.06600
C998        C  0.92540211  0.27011443  0.45912653    -0.03300
C999        C  0.93179617  0.30112820  0.43254938    -0.07800
C1000       C  0.96828418  0.32209720  0.41080250     0.05800
C1001       C  0.49931836  0.31217027  0.41779515    -0.02800
Br1002     Br  0.55024285  0.33583258  0.39005157    -0.02500
H1003       H  0.51620981  0.27318358  0.44821783     0.09700
H1004       H  0.90761612  0.30809109  0.42819694     0.07700
Br1005     Br  0.87390692  0.24137739  0.48545860    -0.02900
C1006       C  0.50238992  0.14903298  0.20290579    -0.09600
C1007       C  0.97141703  0.13205133  0.17465217     0.06600
C1008       C  0.95198922  0.08953769  0.16725911    -0.03300
C1009       C  0.96275679  0.06499695  0.18931880    -0.07800
C1010       C  0.99197520  0.08191723  0.21945755     0.05800
C1011       C  0.51232870  0.12463577  0.22551020    -0.02800
Br1012     Br  0.55359613  0.15248698  0.26443034    -0.02500
H1013       H  0.51848704  0.18172918  0.20815931     0.09700
H1014       H  0.94624809  0.03221995  0.18467976     0.07700
Br1015     Br  0.90808267  0.06273710  0.13037027    -0.02900
C1016       C  0.49354476  0.27567264  0.20482079    -0.09600
C1017       C  0.95739340  0.25479682  0.18302370     0.06600
C1018       C  0.92742020  0.26619345  0.18740532    -0.03300
C1019       C  0.93392411  0.29778032  0.21360458    -0.07800
C1020       C  0.97005033  0.31857925  0.23594463     0.05800
C1021       C  0.49997580  0.30679084  0.23133156    -0.02800
Br1022     Br  0.54835135  0.32798392  0.26294038    -0.02500
H1023       H  0.51656684  0.26667691  0.20210374     0.09700
H1024       H  0.90995910  0.30524262  0.21732769     0.07700
Br1025     Br  0.87593228  0.23736744  0.16095101    -0.02900
C1026       C  0.78827549  0.45931165  0.44966215    -0.09600
C1027       C  0.79172474  0.49709092  0.45873836     0.06600
C1028       C  0.82204022  0.53239183  0.44021061    -0.03300
C1029       C  0.84884892  0.52949458  0.41348623    -0.07800
C1030       C  0.84504033  0.49138493  0.40335869     0.05800
C1031       C  0.81377413  0.45585610  0.42191110    -0.02800
Br1032     Br  0.80137323  0.40089578  0.41027308    -0.02500
H1033       H  0.76411945  0.43189354  0.96299512     0.09700
H1034       H  0.87196539  0.05719306  0.39969099     0.07700
Br1035     Br  0.82717781  0.08493841  0.44985143    -0.02900
C1036       C  0.63136399  0.49825981  0.47695108    -0.09600
C1037       C  0.65306919  0.47895898  0.46414783     0.06600
C1038       C  0.63783443  0.45166651  0.43188836    -0.03400
C1039       C  0.60448064  0.44771574  0.41086856    -0.07800
C1040       C  0.58392327  0.46850824  0.42245165     0.05800
C1041       C  0.59649079  0.49240449  0.45706828    -0.02800
Br1042     Br  0.56860741  0.01896183  0.47802929    -0.02500
H1043       H  0.64192908  0.01860839  0.00218866     0.09700
H1044       H  0.59471879  0.42842203  0.38487433     0.07700
Br1045     Br  0.65949256  0.41712078  0.41614693    -0.02900
C1046       C  0.81164501  0.47554835  0.16854367    -0.09600
C1047       C  0.79734516  0.50274379  0.17679476     0.06600
C1048       C  0.81441059  0.53020721  0.20865045    -0.03300
C1049       C  0.84175676  0.52698568  0.23395647    -0.07800
C1050       C  0.85335707  0.49726182  0.22768217     0.05800
C1051       C  0.83993078  0.47321533  0.19322263    -0.02800
Br1052     Br  0.86180361  0.43973383  0.17629708    -0.02500
H1053       H  0.80005805  0.45531683  0.14326482     0.09700
H1054       H  0.85314248  0.04714042  0.25930497     0.07700
Br1055     Br  0.80215330  0.07320035  0.21822533    -0.02900
C1056       C  0.60649305  0.44468010  0.23168211    -0.09600
C1057       C  0.58831361  0.46827205  0.22260669     0.06600
C1058       C  0.60182397  0.49344788  0.18904266    -0.03300
C1059       C  0.63453788  0.49645095  0.16695990    -0.07800
C1060       C  0.65376358  0.47405206  0.17703223     0.05800
C1061       C  0.63828851  0.44671444  0.20887189    -0.02800
Br1062     Br  0.65799674  0.41004257  0.22148418    -0.02500
H1063       H  0.59594172  0.42454804  0.25683210     0.09700
H1064       H  0.64582176  0.01737718  0.14241819     0.07700
Br1065     Br  0.57905742  0.02667466  0.17325395    -0.02900
C1066       C  0.87352778  0.38017373  0.45591422    -0.09600
C1067       C  0.87681077  0.37262848  0.41589109     0.06600
C1068       C  0.85156160  0.33255074  0.40107941    -0.03300
C1069       C  0.82653393  0.30131669  0.42638084    -0.07800
C1070       C  0.82098043  0.30871684  0.46582752     0.05800
C1071       C  0.84487344  0.34926239  0.48051053    -0.02800
Br1072     Br  0.83803128  0.36632576  0.03199533    -0.02500
H1073       H  0.89184678  0.41080068  0.46764660     0.09700
H1074       H  0.81044505  0.27069872  0.41427106     0.07700
Br1075     Br  0.84752455  0.31632154  0.34664789    -0.02900
C1076       C  0.65461122  0.15883420  0.46906927    -0.09600
C1077       C  0.69600263  0.17280606  0.46327304     0.06600
C1078       C  0.70804943  0.15490680  0.43332872    -0.03300
C1079       C  0.67884719  0.12537935  0.40824611    -0.07800
C1080       C  0.63740734  0.11316277  0.41234021     0.05800
C1081       C  0.62543330  0.12932784  0.44405409    -0.02800
Br1082     Br  0.57004675  0.11138529  0.45660737    -0.02500
H1083       H  0.64500555  0.17165746  0.49263628     0.09700
H1084       H  0.68879237  0.11302991  0.38453987     0.07700
Br1085     Br  0.76396466  0.16945133  0.42576087    -0.02900
C1086       C  0.84096420  0.35419348  0.23290210    -0.09600
C1087       C  0.88171701  0.37467414  0.22024066     0.06600
C1088       C  0.89179187  0.36276590  0.18447666    -0.03300
C1089       C  0.86183807  0.32867335  0.16406927    -0.07800
C1090       C  0.82144386  0.30687438  0.17798429     0.05800
C1091       C  0.81084428  0.32140518  0.21179871    -0.02800
Br1092     Br  0.75567052  0.30010637  0.22951939    -0.02500
H1093       H  0.83229689  0.36404993  0.25946192     0.09700
H1094       H  0.87045772  0.31856864  0.13767395     0.07700
Br1095     Br  0.94590281  0.39005925  0.16316896    -0.02900
C1096       C  0.63309187  0.13314565  0.20889910    -0.09600
C1097       C  0.64379866  0.11244782  0.23641843     0.06600
C1098       C  0.68365517  0.11788418  0.23485915    -0.03300
C1099       C  0.71195014  0.14488923  0.20764593    -0.07800
C1100       C  0.70152132  0.16650672  0.18119243     0.05800
C1101       C  0.66138204  0.15981084  0.18145293    -0.02800
Br1102     Br  0.64442322  0.18867341  0.14705755    -0.02500
H1103       H  0.60264227  0.12895715  0.20898063     0.09700
H1104       H  0.74281010  0.15011175  0.20797249     0.07700
Br1105     Br  0.70313489  0.09241305  0.27088139    -0.02900
C1106       C  0.73409269  0.19989606  0.65774796     0.02700
C1107       C  0.76463530  0.23395659  0.67748086    -0.13400
C1108       C  0.79118080  0.26938890  0.65685620     0.00200
C1109       C  0.78882461  0.26927067  0.61578806    -0.12000
C1110       C  0.76144692  0.23390506  0.59449162     0.02700
C1111       C  0.73351699  0.19927006  0.61642105    -0.11400
H1112       H  0.76653264  0.23337672  0.70922635     0.08300
H1113       H  0.80796572  0.29776132  0.60104292     0.05800
H1114       H  0.71071616  0.17165161  0.60235857     0.05700
C1115       C  0.72639608  0.20722024  0.98734406     0.02700
C1116       C  0.72820480  0.20401993  0.52813975    -0.13400
C1117       C  0.76066175  0.23496125  0.55009803     0.00200
C1118       C  0.79258265  0.26750704  0.52884859    -0.12000
C1119       C  0.78851087  0.27356379  0.98872767     0.02700
C1120       C  0.75398867  0.24340305  0.96884610    -0.11400
H1121       H  0.70425027  0.17699602  0.54175050     0.08300
H1122       H  0.82116567  0.28766703  0.54293281     0.05800
H1123       H  0.74904664  0.24680367  0.93809364     0.05700
C1124       C  0.76187224  0.49871123  0.65450198     0.02700
C1125       C  0.76168290  0.49858383  0.61314092    -0.13400
C1126       C  0.72601963  0.48926547  0.59167029     0.00200
C1127       C  0.69045338  0.47964004  0.61374411    -0.12000
C1128       C  0.69072848  0.48111060  0.65494914     0.02700
C1129       C  0.72661989  0.49090832  0.67501153    -0.11400
H1130       H  0.78985975  0.50605424  0.59855993     0.08300
H1131       H  0.66158374  0.47028842  0.59998046     0.05800
H1132       H  0.72690635  0.49165371  0.70687114     0.05700
C1133       C  0.75941892  0.49742793  0.98301996     0.02700
C1134       C  0.72574315  0.49499911  0.96389831    -0.13400
C1135       C  0.69085702  0.48707577  0.98503815     0.00200
C1136       C  0.69170212  0.48621589  0.52620964    -0.12000
C1137       C  0.72584856  0.49008023  0.54699629     0.02700
C1138       C  0.75928985  0.49433941  0.52421459    -0.11400
H1139       H  0.72605922  0.49731936  0.93213117     0.08300
H1140       H  0.66480135  0.48193335  0.54111105     0.05800
H1141       H  0.78522606  0.49459229  0.53752044     0.05700
C1142       C  0.95142938  0.21948017  0.65860885     0.02700
C1143       C  0.94847197  0.21964045  0.61740174    -0.13400
C1144       C  0.95244902  0.19060062  0.59375701     0.00200
C1145       C  0.95993063  0.16192457  0.61353776    -0.12000
C1146       C  0.96008546  0.15987605  0.65456932     0.02700
C1147       C  0.95510703  0.18839011  0.67679670    -0.11400
H1148       H  0.94470904  0.24360925  0.60460989     0.08300
H1149       H  0.96779753  0.14184885  0.59812505     0.05800
H1150       H  0.95682528  0.18810236  0.70861692     0.05700
C1151       C  0.94882680  0.22294214  0.98692956     0.02700
C1152       C  0.94999206  0.22311606  0.52825489    -0.13400
C1153       C  0.95052750  0.19088524  0.54914052     0.00200
C1154       C  0.95102297  0.15936427  0.52652908    -0.12000
C1155       C  0.95000836  0.15891469  0.98538301     0.02700
C1156       C  0.94751121  0.19024828  0.96600415    -0.11400
H1157       H  0.95240560  0.24956712  0.54313490     0.08300
H1158       H  0.95409701  0.13548420  0.53999287     0.05800
H1159       H  0.94728011  0.19074279  0.93412900     0.05700
O1160       O  0.90678321  0.02421061  0.77366503    -0.88600
C1161       C  0.60867399  0.08661111  0.88136864     1.11500
O1162       O  0.94649656  0.48159394  0.81885790    -1.36400
O1163       O  0.58798735  0.09689291  0.77935735    -0.90100
O1164       O  0.86867881  0.45607199  0.76966241    -0.90700
O1165       O  0.94492496  0.43583835  0.73617151    -0.79600
O1166       O  0.99667001  0.06152714  0.78295351    -1.01600
C1167       C  0.55813504  0.46836461  0.75045876     1.21500
O1168       O  0.98190743  0.43164931  0.82096814    -1.36500
Mn1169     Mn  0.98471232  0.47643492  0.86341575     1.82100
O1170       O  0.52872820  0.47215732  0.73924125    -0.78600
O1171       O  0.61508476  0.05620844  0.78001921    -0.88000
C1172       C  0.55389764  0.46856310  0.89468813     1.12600
C1173       C  0.61371255  0.08688928  0.76699392     1.07300
O1174       O  0.93858104  0.43594092  0.90268370    -0.79600
O1175       O  0.53081159  0.01619937  0.82165588    -1.33300
O1176       O  0.90215250  0.40245098  0.85466297    -0.98800
C1177       C  0.97383431  0.34944234  0.76579972     1.06000
Mn1178     Mn  0.58535808  0.01251903  0.82330193     1.48600
O1179       O  0.94125720  0.34751173  0.77826165    -0.88000
Mn1180     Mn  0.88691117  0.43134578  0.81615345     1.49600
O1181       O  0.90329801  0.02286749  0.86119918    -0.91900
C1182       C  0.99560910  0.05430778  0.74785060     1.19200
C1183       C  0.87251384  0.48970740  0.87251990     1.11300
Mn1184     Mn  0.98762408  0.47643055  0.77783553     1.81000
O1185       O  0.55949106  0.46690580  0.85961056    -0.97000
Mn1186     Mn  0.94938129  0.03954359  0.81846746     1.49300
C1187       C  0.87824876  0.49195639  0.75822775     1.07800
Mn1188     Mn  0.53200132  0.42133125  0.82247237     1.49900
C1189       C  0.97185377  0.35142649  0.87947361     1.10700
O1190       O  0.90533675  0.40193459  0.78203379    -1.02800
O1191       O  0.61255996  0.05719357  0.86770026    -0.92500
C1192       C  0.91211061  0.40578544  0.74703073     1.22000
O1193       O  0.56270150  0.46658635  0.78577150    -1.03200
O1194       O  0.58303868  0.09591920  0.86794397    -0.90600
O1195       O  0.50690727  0.37692714  0.86650451    -0.90200
O1196       O  0.86384979  0.45525594  0.85796792    -0.90200
Mn1197     Mn  0.54073696  0.07653486  0.82164396     1.47900
O1198       O  0.52401373  0.47231512  0.90501234    -0.78700
C1199       C  0.90643624  0.40589891  0.89005697     1.15000
O1200       O  0.99248325  0.02085332  0.73748192    -0.77400
O1201       O  0.98618567  0.02067457  0.90311350    -0.77000
Mn1202     Mn  0.92470707  0.37718061  0.82025113     1.51100
O1203       O  0.50885069  0.37587660  0.77845314    -0.89400
O1204       O  0.99339044  0.06028333  0.85641042    -0.96900
O1205       O  0.93947749  0.34918233  0.86593294    -0.91900
C1206       C  0.98896473  0.05346486  0.89146047     1.12800
C1207       C  0.95296966  0.06384365  0.94841979    -0.09600
C1208       C  0.98108519  0.08058651  0.91743013     0.06600
C1209       C  0.49832639  0.12266651  0.90939511    -0.03300
C1210       C  0.48774728  0.14683576  0.93209163    -0.07800
C1211       C  0.95886460  0.13026108  0.96240456     0.05800
C1212       C  0.94138343  0.08801123  0.97059733    -0.02800
Br1213     Br  0.89965023  0.06046062  0.00945315    -0.02500
H1214       H  0.93861721  0.03142752  0.95437404     0.09700
H1215       H  0.50282685  0.17927968  0.92610157     0.07700
Br1216     Br  0.53853355  0.15033308  0.86940810    -0.02900
C1217       C  0.49273997  0.28137437  0.94437755    -0.09600
C1218       C  0.95578712  0.25948557  0.96451543     0.06600
C1219       C  0.92540145  0.27011392  0.95912631    -0.03300
C1220       C  0.93179563  0.30112778  0.93254922    -0.07800
C1221       C  0.96828377  0.32209692  0.91080255     0.05800
C1222       C  0.49931793  0.31217011  0.91779545    -0.02800
Br1223     Br  0.55024268  0.33583269  0.89005233    -0.02500
H1224       H  0.51620930  0.27318343  0.94821828     0.09700
H1225       H  0.90761556  0.30809061  0.92819664     0.07700
Br1226     Br  0.87390609  0.24137667  0.98545804    -0.02900
C1227       C  0.50238999  0.14903305  0.70290579    -0.09600
C1228       C  0.97141713  0.13205133  0.67465207     0.06600
C1229       C  0.95198945  0.08953773  0.66725888    -0.03300
C1230       C  0.96275698  0.06499697  0.68931860    -0.07800
C1231       C  0.99197523  0.08191722  0.71945749     0.05800
C1232       C  0.51232874  0.12463582  0.72551020    -0.02800
Br1233     Br  0.55359597  0.15248697  0.76443052    -0.02500
H1234       H  0.51848701  0.18172923  0.70815942     0.09700
H1235       H  0.94624836  0.03221998  0.68467947     0.07700
Br1236     Br  0.90808314  0.06273718  0.63036979    -0.02900
C1237       C  0.49354438  0.27567251  0.70482051    -0.09600
C1238       C  0.95739311  0.25479656  0.68302384     0.06600
C1239       C  0.92741996  0.26619326  0.68740539    -0.03300
C1240       C  0.93392389  0.29778016  0.71360462    -0.07800
C1241       C  0.97005004  0.31857901  0.73594476     0.05800
C1242       C  0.49997547  0.30679072  0.73133128    -0.02800
Br1243     Br  0.54835131  0.32798408  0.76293970    -0.02500
H1244       H  0.51656657  0.26667695  0.70210324     0.09700
H1245       H  0.90995892  0.30524255  0.71732763     0.07700
Br1246     Br  0.87593206  0.23736729  0.66095103    -0.02900
C1247       C  0.78827555  0.45931183  0.94966228    -0.09600
C1248       C  0.79172466  0.49709111  0.95873821     0.06600
C1249       C  0.82203999  0.53239193  0.94021025    -0.03300
C1250       C  0.84884871  0.52949462  0.91348595    -0.07800
C1251       C  0.84504026  0.49138496  0.90335871     0.05800
C1252       C  0.81377418  0.45585621  0.92191131    -0.02800
Br1253     Br  0.80137349  0.40089588  0.91027366    -0.02500
H1254       H  0.76411929  0.43189330  0.46299481     0.09700
H1255       H  0.87196544  0.05719289  0.89969122     0.07700
Br1256     Br  0.82717783  0.08493818  0.94985169    -0.02900
C1257       C  0.63136379  0.49825963  0.97695107    -0.09600
C1258       C  0.65306901  0.47895884  0.96414783     0.06600
C1259       C  0.63783426  0.45166633  0.93188839    -0.03400
C1260       C  0.60448047  0.44771552  0.91086858    -0.07800
C1261       C  0.58392307  0.46850800  0.92245165     0.05800
C1262       C  0.59649057  0.49240426  0.95706827    -0.02800
Br1263     Br  0.56860748  0.01896178  0.97802931    -0.02500
H1264       H  0.64192912  0.01860864  0.50218860     0.09700
H1265       H  0.59471864  0.42842181  0.88487434     0.07700
Br1266     Br  0.65949245  0.41712062  0.91614702    -0.02900
C1267       C  0.81164492  0.47554837  0.66854382    -0.09600
C1268       C  0.79734500  0.50274374  0.67679495     0.06600
C1269       C  0.81441035  0.53020709  0.70865070    -0.03300
C1270       C  0.84175652  0.52698558  0.73395672    -0.07800
C1271       C  0.85335693  0.49726179  0.72768236     0.05800
C1272       C  0.83993069  0.47321536  0.69322277    -0.02800
Br1273     Br  0.86180363  0.43973396  0.67629717    -0.02500
H1274       H  0.80005802  0.45531691  0.64326493     0.09700
H1275       H  0.85314242  0.04714025  0.75930505     0.07700
Br1276     Br  0.80215340  0.07320036  0.71822544    -0.02900
C1277       C  0.60649285  0.44467991  0.73168208    -0.09600
C1278       C  0.58831344  0.46827189  0.72260670     0.06600
C1279       C  0.60182386  0.49344780  0.68904273    -0.03300
C1280       C  0.63453776  0.49645086  0.66695995    -0.07800
C1281       C  0.65376342  0.47405192  0.67703224     0.05800
C1282       C  0.63828832  0.44671428  0.70887188    -0.02800
Br1283     Br  0.65799663  0.41004248  0.72148422    -0.02500
H1284       H  0.59594150  0.42454783  0.75683205     0.09700
H1285       H  0.64582179  0.01737714  0.64241808     0.07700
Br1286     Br  0.57905756  0.02667476  0.67325390    -0.02900
C1287       C  0.87352768  0.38017364  0.95591430    -0.09600
C1288       C  0.87681067  0.37262837  0.91589118     0.06600
C1289       C  0.85156150  0.33255062  0.90107951    -0.03300
C1290       C  0.82653385  0.30131658  0.92638096    -0.07800
C1291       C  0.82098034  0.30871676  0.96582763     0.05800
C1292       C  0.84487332  0.34926231  0.98051061    -0.02800
Br1293     Br  0.83803152  0.36632582  0.53199531    -0.02500
H1294       H  0.89184666  0.41080060  0.96764667     0.09700
H1295       H  0.81044498  0.27069860  0.91427120     0.07700
Br1296     Br  0.84752443  0.31632139  0.84664799    -0.02900
C1297       C  0.65461116  0.15883410  0.96906932    -0.09600
C1298       C  0.69600258  0.17280604  0.96327306     0.06600
C1299       C  0.70804943  0.15490693  0.93332864    -0.03300
C1300       C  0.67884722  0.12537955  0.90824596    -0.07800
C1301       C  0.63740736  0.11316289  0.91234010     0.05800
C1302       C  0.62543327  0.12932780  0.94405407    -0.02800
Br1303     Br  0.57004670  0.11138512  0.95660739    -0.02500
H1304       H  0.64500545  0.17165725  0.99263641     0.09700
H1305       H  0.68879243  0.11303023  0.88453964     0.07700
Br1306     Br  0.76396469  0.16945158  0.92576070    -0.02900
C1307       C  0.84096414  0.35419348  0.73290202    -0.09600
C1308       C  0.88171697  0.37467420  0.72024064     0.06600
C1309       C  0.89179190  0.36276610  0.68447660    -0.03300
C1310       C  0.86183819  0.32867355  0.66406916    -0.07800
C1311       C  0.82144397  0.30687449  0.67798416     0.05800
C1312       C  0.81084428  0.32140522  0.71179854    -0.02800
Br1313     Br  0.75567047  0.30010639  0.72951905    -0.02500
H1314       H  0.83229676  0.36404986  0.75946184     0.09700
H1315       H  0.87045789  0.31856891  0.63767384     0.07700
Br1316     Br  0.94590282  0.39005970  0.66316885    -0.02900
C1317       C  0.63309205  0.13314597  0.70889910    -0.09600
C1318       C  0.64379877  0.11244802  0.73641838     0.06600
C1319       C  0.68365526  0.11788437  0.73485914    -0.03300
C1320       C  0.71195025  0.14488936  0.70764589    -0.07800
C1321       C  0.70152149  0.16650690  0.68119239     0.05800
C1322       C  0.66138226  0.15981118  0.68145297    -0.02800
Br1323     Br  0.64442365  0.18867411  0.64705784    -0.02500
H1324       H  0.60264249  0.12895756  0.70898066     0.09700
H1325       H  0.74281019  0.15011183  0.70797245     0.07700
Br1326     Br  0.70313499  0.09241339  0.77088155    -0.02900
C1327       C  0.73409262  0.69989597  0.15774793     0.02700
C1328       C  0.76463523  0.73395649  0.17748084    -0.13400
C1329       C  0.79118078  0.76938879  0.15685620     0.00200
C1330       C  0.78882464  0.76927055  0.11578805    -0.12000
C1331       C  0.76144693  0.73390496  0.09449160     0.02700
C1332       C  0.73351695  0.69926998  0.11642102    -0.11400
H1333       H  0.76653252  0.73337662  0.20922634     0.08300
H1334       H  0.80796580  0.79776120  0.10104293     0.05800
H1335       H  0.71071610  0.67165154  0.10235853     0.05700
C1336       C  0.72639618  0.70722021  0.48734406     0.02700
C1337       C  0.72820486  0.70401982  0.02813970    -0.13400
C1338       C  0.76066177  0.73496116  0.05009800     0.00200
C1339       C  0.79258266  0.76750698  0.02884858    -0.12000
C1340       C  0.78851098  0.77356376  0.48872766     0.02700
C1341       C  0.75398878  0.74340302  0.46884609    -0.11400
H1342       H  0.70425036  0.67699588  0.04175042     0.08300
H1343       H  0.82116567  0.78766699  0.04293280     0.05800
H1344       H  0.74904673  0.74680361  0.43809363     0.05700
C1345       C  0.76187227  0.99871114  0.15450187     0.02700
C1346       C  0.76168287  0.99858370  0.11314082    -0.13400
C1347       C  0.72601962  0.98926547  0.09167022     0.00200
C1348       C  0.69045344  0.97964020  0.11374408    -0.12000
C1349       C  0.69072856  0.98111071  0.15494912     0.02700
C1350       C  0.72661996  0.99090831  0.17501146    -0.11400
H1351       H  0.78985968  0.00605400  0.09855981     0.08300
H1352       H  0.66158381  0.97028877  0.09998048     0.05800
H1353       H  0.72690646  0.99165371  0.20687108     0.05700
C1354       C  0.75941901  0.99742803  0.48301995     0.02700
C1355       C  0.72574325  0.99499925  0.46389830    -0.13400
C1356       C  0.69085711  0.98707589  0.48503814     0.00200
C1357       C  0.69170199  0.98621565  0.02620957    -0.12000
C1358       C  0.72584852  0.99008019  0.04699621     0.02700
C1359       C  0.75928985  0.99433953  0.02421449    -0.11400
H1360       H  0.72605934  0.99731954  0.43213117     0.08300
H1361       H  0.66480114  0.98193291  0.04111097     0.05800
H1362       H  0.78522615  0.99459257  0.03752031     0.05700
C1363       C  0.95142919  0.71948011  0.15860886     0.02700
C1364       C  0.94847164  0.71964029  0.11740176    -0.13400
C1365       C  0.95244878  0.69060050  0.09375705     0.00200
C1366       C  0.95993055  0.66192455  0.11353781    -0.12000
C1367       C  0.96008545  0.65987610  0.15456937     0.02700
C1368       C  0.95510701  0.68839016  0.17679674    -0.11400
H1369       H  0.94470854  0.74360897  0.10460990     0.08300
H1370       H  0.96779750  0.64184888  0.09812509     0.05800
H1371       H  0.95682537  0.68810249  0.20861695     0.05700
C1372       C  0.94882690  0.72294224  0.48692960     0.02700
C1373       C  0.94999190  0.72311595  0.02825492    -0.13400
C1374       C  0.95052721  0.69088507  0.04914056     0.00200
C1375       C  0.95102257  0.65936403  0.02652915    -0.12000
C1376       C  0.95000873  0.65891491  0.48538305     0.02700
C1377       C  0.94751148  0.69024845  0.46600419    -0.11400
H1378       H  0.95240556  0.74956706  0.04313493     0.08300
H1379       H  0.95409648  0.63548390  0.03999298     0.05800
H1380       H  0.94728040  0.69074297  0.43412904     0.05700
O1381       O  0.90678330  0.52421074  0.27366506    -0.88600
C1382       C  0.60867402  0.58661115  0.38136869     1.11500
O1383       O  0.94649658  0.98159399  0.31885782    -1.36400
O1384       O  0.58798737  0.59689293  0.27935738    -0.90100
O1385       O  0.86867890  0.95607208  0.26966228    -0.90700
O1386       O  0.94492496  0.93583833  0.23617144    -0.79600
O1387       O  0.99667010  0.56152723  0.28295353    -1.01600
C1388       C  0.55813509  0.96836464  0.25045881     1.21500
O1389       O  0.98190740  0.93164931  0.32096809    -1.36500
Mn1390     Mn  0.98471231  0.97643493  0.36341568     1.82100
O1391       O  0.52872824  0.97215734  0.23924129    -0.78600
O1392       O  0.61508477  0.55620847  0.28001927    -0.88000
C1393       C  0.55389766  0.96856316  0.39468817     1.12600
C1394       C  0.61371255  0.58688928  0.26699395     1.07300
O1395       O  0.93858101  0.93594097  0.40268364    -0.79600
O1396       O  0.53081162  0.51619941  0.32165593    -1.33300
O1397       O  0.90215246  0.90245103  0.35466291    -0.98800
C1398       C  0.97383423  0.84944232  0.26579969     1.06000
Mn1399     Mn  0.58535811  0.51251907  0.32330198     1.48600
O1400       O  0.94125713  0.84751170  0.27826166    -0.88000
Mn1401     Mn  0.88691119  0.93134585  0.31615336     1.49600
O1402       O  0.90329810  0.52286756  0.36119924    -0.91900
C1403       C  0.99560918  0.55430787  0.24785062     1.19200
C1404       C  0.87251387  0.98970752  0.37251979     1.11300
Mn1405     Mn  0.98762409  0.97643056  0.27783547     1.81000
O1406       O  0.55949107  0.96690586  0.35961061    -0.97000
Mn1407     Mn  0.94938138  0.53954367  0.31846749     1.49300
C1408       C  0.87824888  0.99195648  0.25822760     1.07800
Mn1409     Mn  0.53200135  0.92133130  0.32247243     1.49900
C1410       C  0.97185370  0.85142649  0.37947359     1.10700
O1411       O  0.90533673  0.90193461  0.28203373    -1.02800
O1412       O  0.61255997  0.55719359  0.36770032    -0.92500
C1413       C  0.91211060  0.90578542  0.24703068     1.22000
O1414       O  0.56270155  0.96658639  0.28577154    -1.03200
O1415       O  0.58303872  0.59591925  0.36794401    -0.90600
O1416       O  0.50690729  0.87692720  0.36650456    -0.90200
O1417       O  0.86384982  0.95525605  0.35796780    -0.90200
Mn1418     Mn  0.54073699  0.57653490  0.32164402     1.47900
O1419       O  0.52401375  0.97231517  0.40501239    -0.78700
C1420       C  0.90643619  0.90589896  0.39005690     1.15000
O1421       O  0.99248331  0.52085341  0.23748192    -0.77400
O1422       O  0.98618573  0.52067458  0.40311350    -0.77000
Mn1423     Mn  0.92470702  0.87718062  0.32025111     1.51100
O1424       O  0.50885073  0.87587664  0.27845322    -0.89400
O1425       O  0.99339055  0.56028338  0.35641044    -0.96900
O1426       O  0.93947741  0.84918235  0.36593295    -0.91900
C1427       C  0.98896485  0.55346491  0.39146049     1.12800
C1428       C  0.95296995  0.56384381  0.44841989    -0.09600
C1429       C  0.98108541  0.58058662  0.41743018     0.06600
C1430       C  0.49832634  0.62266649  0.40939509    -0.03300
C1431       C  0.48774725  0.64683576  0.43209163    -0.07800
C1432       C  0.95886495  0.63026128  0.46240461     0.05800
C1433       C  0.94138379  0.58801144  0.47059744    -0.02800
Br1434     Br  0.89965067  0.56046091  0.50945335    -0.02500
H1435       H  0.93861749  0.53142769  0.45437419     0.09700
H1436       H  0.50282678  0.67927965  0.42610151     0.07700
Br1437     Br  0.53853332  0.65033305  0.36940793    -0.02900
C1438       C  0.49274010  0.78137446  0.44437760    -0.09600
C1439       C  0.95578717  0.75948565  0.46451547     0.06600
C1440       C  0.92540145  0.77011394  0.45912632    -0.03300
C1441       C  0.93179559  0.80112776  0.43254921    -0.07800
C1442       C  0.96828372  0.82209694  0.41080255     0.05800
C1443       C  0.49931802  0.81217018  0.41779549    -0.02800
Br1444     Br  0.55024277  0.83583281  0.39005236    -0.02500
H1445       H  0.51620947  0.77318359  0.44821836     0.09700
H1446       H  0.90761548  0.80809054  0.42819660     0.07700
Br1447     Br  0.87390609  0.74137665  0.48545804    -0.02900
C1448       C  0.50238998  0.64903307  0.20290578    -0.09600
C1449       C  0.97141715  0.63205141  0.17465212     0.06600
C1450       C  0.95198943  0.58953780  0.16725898    -0.03300
C1451       C  0.96275697  0.56499705  0.18931869    -0.07800
C1452       C  0.99197528  0.58191731  0.21945752     0.05800
C1453       C  0.51232874  0.62463584  0.22551020    -0.02800
Br1454     Br  0.55359607  0.65248703  0.26443043    -0.02500
H1455       H  0.51848706  0.68172926  0.20815935     0.09700
H1456       H  0.94624832  0.53222006  0.18467959     0.07700
Br1457     Br  0.90808302  0.56273724  0.13036999    -0.02900
C1458       C  0.49354444  0.77567252  0.20482069    -0.09600
C1459       C  0.95739294  0.75479653  0.18302379     0.06600
C1460       C  0.92741967  0.76619303  0.18740559    -0.03300
C1461       C  0.93392362  0.79777993  0.21360482    -0.07800
C1462       C  0.97004993  0.81857899  0.23594471     0.05800
C1463       C  0.49997549  0.80679070  0.23133147    -0.02800
Br1464     Br  0.54835117  0.82798388  0.26294013    -0.02500
H1465       H  0.51656660  0.76667691  0.20210349     0.09700
H1466       H  0.90995855  0.80524215  0.21732803     0.07700
Br1467     Br  0.87593161  0.73736678  0.16095154    -0.02900
C1468       C  0.78827559  0.95931194  0.44966219    -0.09600
C1469       C  0.79172476  0.99709122  0.45873820     0.06600
C1470       C  0.82204012  0.03239206  0.44021028    -0.03300
C1471       C  0.84884882  0.02949475  0.41348594    -0.07800
C1472       C  0.84504031  0.99138509  0.40335861     0.05800
C1473       C  0.81377421  0.95585632  0.42191119    -0.02800
Br1474     Br  0.80137348  0.90089600  0.41027348    -0.02500
H1475       H  0.76411927  0.93189335  0.96299485     0.09700
H1476       H  0.87196557  0.55719294  0.39969142     0.07700
Br1477     Br  0.82717795  0.58493817  0.44985195    -0.02900
C1478       C  0.63136387  0.99825975  0.47695107    -0.09600
C1479       C  0.65306911  0.97895898  0.46414781     0.06600
C1480       C  0.63783437  0.95166648  0.43188836    -0.03400
C1481       C  0.60448055  0.94771564  0.41086858    -0.07800
C1482       C  0.58392313  0.96850809  0.42245168     0.05800
C1483       C  0.59649063  0.99240435  0.45706830    -0.02800
Br1484     Br  0.56860761  0.51896201  0.47802927    -0.02500
H1485       H  0.64192904  0.51860853  0.00218860     0.09700
H1486       H  0.59471872  0.92842194  0.38487434     0.07700
Br1487     Br  0.65949257  0.91712081  0.41614695    -0.02900
C1488       C  0.81164498  0.97554830  0.16854370    -0.09600
C1489       C  0.79734506  0.00274368  0.17679479     0.06600
C1490       C  0.81441049  0.03020715  0.20865045    -0.03300
C1491       C  0.84175671  0.02698570  0.23395646    -0.07800
C1492       C  0.85335708  0.99726188  0.22768217     0.05800
C1493       C  0.83993081  0.97321537  0.19322264    -0.02800
Br1494     Br  0.86180378  0.93973399  0.17629707    -0.02500
H1495       H  0.80005803  0.95531677  0.14326486     0.09700
H1496       H  0.85314254  0.54714040  0.25930498     0.07700
Br1497     Br  0.80215348  0.57320045  0.21822535    -0.02900
C1498       C  0.60649295  0.94467999  0.23168211    -0.09600
C1499       C  0.58831351  0.96827195  0.22260674     0.06600
C1500       C  0.60182392  0.99344787  0.18904277    -0.03300
C1501       C  0.63453784  0.99645098  0.16696000    -0.07800
C1502       C  0.65376352  0.97405205  0.17703227     0.05800
C1503       C  0.63828843  0.94671439  0.20887190    -0.02800
Br1504     Br  0.65799670  0.91004255  0.22148418    -0.02500
H1505       H  0.59594159  0.92454789  0.25683207     0.09700
H1506       H  0.64582177  0.51737710  0.14241805     0.07700
Br1507     Br  0.57905744  0.52667460  0.17325375    -0.02900
C1508       C  0.87352774  0.88017365  0.45591427    -0.09600
C1509       C  0.87681065  0.87262841  0.41589112     0.06600
C1510       C  0.85156146  0.83255067  0.40107944    -0.03300
C1511       C  0.82653387  0.80131661  0.42638090    -0.07800
C1512       C  0.82098043  0.80871675  0.46582760     0.05800
C1513       C  0.84487344  0.84926230  0.48051060    -0.02800
Br1514     Br  0.83803133  0.86632576  0.03199528    -0.02500
H1515       H  0.89184675  0.91080060  0.46764664     0.09700
H1516       H  0.81044501  0.77069863  0.41427112     0.07700
Br1517     Br  0.84752431  0.81632148  0.34664790    -0.02900
C1518       C  0.65461126  0.65883424  0.46906928    -0.09600
C1519       C  0.69600266  0.67280603  0.46327309     0.06600
C1520       C  0.70804946  0.65490679  0.43332875    -0.03300
C1521       C  0.67884722  0.62537942  0.40824608    -0.07800
C1522       C  0.63740738  0.61316291  0.41234015     0.05800
C1523       C  0.62543335  0.62932795  0.44405405    -0.02800
Br1524     Br  0.57004680  0.61138544  0.45660733    -0.02500
H1525       H  0.64500559  0.67165749  0.49263631     0.09700
H1526       H  0.68879239  0.61302999  0.38453983     0.07700
Br1527     Br  0.76396467  0.66945124  0.42576094    -0.02900
C1528       C  0.84096413  0.85419348  0.23290192    -0.09600
C1529       C  0.88171698  0.87467413  0.22024060     0.06600
C1530       C  0.89179195  0.86276590  0.18447666    -0.03300
C1531       C  0.86183823  0.82867332  0.16406924    -0.07800
C1532       C  0.82144398  0.80687436  0.17798416     0.05800
C1533       C  0.81084428  0.82140519  0.21179847    -0.02800
Br1534     Br  0.75567044  0.80010644  0.22951887    -0.02500
H1535       H  0.83229673  0.86404994  0.25946167     0.09700
H1536       H  0.87045795  0.81856860  0.13767398     0.07700
Br1537     Br  0.94590292  0.89005931  0.16316905    -0.02900
C1538       C  0.63309201  0.63314593  0.20889912    -0.09600
C1539       C  0.64379873  0.61244796  0.23641836     0.06600
C1540       C  0.68365519  0.61788420  0.23485901    -0.03300
C1541       C  0.71195016  0.64488919  0.20764576    -0.07800
C1542       C  0.70152142  0.66650679  0.18119233     0.05800
C1543       C  0.66138220  0.65981111  0.18145296    -0.02800
Br1544     Br  0.64442356  0.68867400  0.14705781    -0.02500
H1545       H  0.60264247  0.62895756  0.20898071     0.09700
H1546       H  0.74281008  0.65011160  0.20797225     0.07700
Br1547     Br  0.70313488  0.59241300  0.27088121    -0.02900
C1548       C  0.73409254  0.69989594  0.65774802     0.02700
C1549       C  0.76463511  0.73395648  0.67748095    -0.13400
C1550       C  0.79118063  0.76938881  0.65685633     0.00200
C1551       C  0.78882449  0.76927059  0.61578817    -0.12000
C1552       C  0.76144685  0.73390497  0.59449171     0.02700
C1553       C  0.73351692  0.69926995  0.61642111    -0.11400
H1554       H  0.76653242  0.73337658  0.70922644     0.08300
H1555       H  0.80796560  0.79776124  0.60104304     0.05800
H1556       H  0.71071614  0.67165148  0.60235861     0.05700
C1557       C  0.72639621  0.70722020  0.98734394     0.02700
C1558       C  0.72820481  0.70401984  0.52813982    -0.13400
C1559       C  0.76066174  0.73496116  0.55009811     0.00200
C1560       C  0.79258266  0.76750695  0.52884869    -0.12000
C1561       C  0.78851097  0.77356380  0.98872756     0.02700
C1562       C  0.75398879  0.74340304  0.96884597    -0.11400
H1563       H  0.70425026  0.67699593  0.54175055     0.08300
H1564       H  0.82116565  0.78766694  0.54293294     0.05800
H1565       H  0.74904675  0.74680364  0.93809352     0.05700
C1566       C  0.76187234  0.99871127  0.65450185     0.02700
C1567       C  0.76168298  0.99858393  0.61314080    -0.13400
C1568       C  0.72601972  0.98926565  0.59167019     0.00200
C1569       C  0.69045349  0.97964022  0.61374403    -0.12000
C1570       C  0.69072860  0.98111071  0.65494907     0.02700
C1571       C  0.72662000  0.99090837  0.67501143    -0.11400
H1572       H  0.78985982  0.00605431  0.59855980     0.08300
H1573       H  0.66158385  0.97028868  0.59998042     0.05800
H1574       H  0.72690648  0.99165374  0.70687105     0.05700
C1575       C  0.75941891  0.99742776  0.98301998     0.02700
C1576       C  0.72574315  0.99499896  0.96389832    -0.13400
C1577       C  0.69085700  0.98707558  0.98503814     0.00200
C1578       C  0.69170213  0.98621599  0.52620956    -0.12000
C1579       C  0.72584864  0.99008045  0.54699619     0.02700
C1580       C  0.75928995  0.99433976  0.52421446    -0.11400
H1581       H  0.72605926  0.99731926  0.93213118     0.08300
H1582       H  0.66480131  0.98193333  0.54111099     0.05800
H1583       H  0.78522623  0.99459275  0.53752027     0.05700
C1584       C  0.95142967  0.71948040  0.65860887     0.02700
C1585       C  0.94847227  0.71964066  0.61740177    -0.13400
C1586       C  0.95244891  0.69060055  0.59375707     0.00200
C1587       C  0.95993014  0.66192426  0.61353790    -0.12000
C1588       C  0.96008518  0.65987594  0.65456947     0.02700
C1589       C  0.95510709  0.68839024  0.67679679    -0.11400
H1590       H  0.94470968  0.74360965  0.60460992     0.08300
H1591       H  0.96779656  0.64184818  0.59812526     0.05800
H1592       H  0.95682540  0.68810256  0.70861701     0.05700
C1593       C  0.94882731  0.72294245  0.98692962     0.02700
C1594       C  0.94999148  0.72311574  0.52825490    -0.13400
C1595       C  0.95052735  0.69088513  0.54914056     0.00200
C1596       C  0.95102322  0.65936438  0.52652910    -0.12000
C1597       C  0.95000841  0.65891473  0.98538308     0.02700
C1598       C  0.94751159  0.69024851  0.96600422    -0.11400
H1599       H  0.95240470  0.74956667  0.54313487     0.08300
H1600       H  0.95409782  0.63548460  0.53999281     0.05800
H1601       H  0.94728058  0.69074308  0.93412907     0.05700
O1602       O  0.90678320  0.52421071  0.77366519    -0.88600
C1603       C  0.60867399  0.58661096  0.88136868     1.11500
O1604       O  0.94649663  0.98159397  0.81885783    -1.36400
O1605       O  0.58798730  0.59689276  0.77935740    -0.90100
O1606       O  0.86867882  0.95607189  0.76966235    -0.90700
O1607       O  0.94492503  0.93583830  0.73617146    -0.79600
O1608       O  0.99666999  0.56152713  0.78295362    -1.01600
C1609       C  0.55813517  0.96836473  0.75045872     1.21500
O1610       O  0.98190761  0.93164943  0.82096813    -1.36500
Mn1611     Mn  0.98471243  0.97643503  0.86341570     1.82100
O1612       O  0.52872830  0.97215738  0.73924120    -0.78600
O1613       O  0.61508467  0.55620826  0.78001928    -0.88000
C1614       C  0.55389778  0.96856328  0.89468809     1.12600
C1615       C  0.61371247  0.58688910  0.76699397     1.07300
O1616       O  0.93858118  0.93594102  0.90268369    -0.79600
O1617       O  0.53081151  0.51619925  0.82165596    -1.33300
O1618       O  0.90215269  0.90245106  0.85466295    -0.98800
C1619       C  0.97383463  0.84944252  0.76579975     1.06000
Mn1620     Mn  0.58535797  0.51251884  0.82330199     1.48600
O1621       O  0.94125749  0.84751185  0.77826170    -0.88000
Mn1622     Mn  0.88691127  0.93134576  0.81615342     1.49600
O1623       O  0.90329805  0.52286751  0.86119932    -0.91900
C1624       C  0.99560903  0.55430775  0.74785071     1.19200
C1625       C  0.87251384  0.98970736  0.87251981     1.11300
Mn1626     Mn  0.98762417  0.97643060  0.77783547     1.81000
O1627       O  0.55949120  0.96690600  0.85961052    -0.97000
Mn1628     Mn  0.94938130  0.53954360  0.81846759     1.49300
C1629       C  0.87824876  0.99195627  0.75822763     1.07800
Mn1630     Mn  0.53200153  0.92133144  0.82247236     1.49900
C1631       C  0.97185411  0.85142671  0.87947365     1.10700
O1632       O  0.90533690  0.90193459  0.78203380    -1.02800
O1633       O  0.61255991  0.55719338  0.86770032    -0.92500
C1634       C  0.91211070  0.90578539  0.74703074     1.22000
O1635       O  0.56270166  0.96658652  0.78577146    -1.03200
O1636       O  0.58303869  0.59591907  0.86794402    -0.90600
O1637       O  0.50690751  0.87692736  0.86650450    -0.90200
O1638       O  0.86384987  0.95525591  0.85796787    -0.90200
Mn1639     Mn  0.54073693  0.57653477  0.82164405     1.47900
O1640       O  0.52401387  0.97231529  0.90501230    -0.78700
C1641       C  0.90643639  0.90589899  0.89005695     1.15000
O1642       O  0.99248319  0.52085331  0.73748202    -0.77400
O1643       O  0.98618562  0.52067447  0.90311359    -0.77000
Mn1644     Mn  0.92470730  0.87718069  0.82025117     1.51100
O1645       O  0.50885095  0.87587679  0.77845315    -0.89400
O1646       O  0.99339047  0.56028329  0.85641054    -0.96900
O1647       O  0.93947780  0.84918249  0.86593300    -0.91900
C1648       C  0.98896474  0.55346480  0.89146058     1.12800
C1649       C  0.95296959  0.56384360  0.94841985    -0.09600
C1650       C  0.98108522  0.58058646  0.91743026     0.06600
C1651       C  0.49832644  0.62266647  0.90939524    -0.03300
C1652       C  0.48774736  0.64683576  0.93209174    -0.07800
C1653       C  0.95886462  0.63026107  0.96240466     0.05800
C1654       C  0.94138335  0.58801119  0.97059736    -0.02800
Br1655     Br  0.89964996  0.56046053  0.00945300    -0.02500
H1656       H  0.93861707  0.53142746  0.95437406     0.09700
H1657       H  0.50282701  0.67927968  0.92610169     0.07700
Br1658     Br  0.53853366  0.65033302  0.86940825    -0.02900
C1659       C  0.49274033  0.78137453  0.94437740    -0.09600
C1660       C  0.95578767  0.75948589  0.96451550     0.06600
C1661       C  0.92540207  0.77011439  0.95912658    -0.03300
C1662       C  0.93179619  0.80112820  0.93254946    -0.07800
C1663       C  0.96828420  0.82209718  0.91080259     0.05800
C1664       C  0.49931822  0.81217023  0.91779528    -0.02800
Br1665     Br  0.55024278  0.83583258  0.89005181    -0.02500
H1666       H  0.51620961  0.77318350  0.94821798     0.09700
H1667       H  0.90761617  0.80809114  0.92819704     0.07700
Br1668     Br  0.87390686  0.74137738  0.98545862    -0.02900
C1669       C  0.50238968  0.64903290  0.70290590    -0.09600
C1670       C  0.97141680  0.63205119  0.67465226     0.06600
C1671       C  0.95198907  0.58953757  0.66725915    -0.03300
C1672       C  0.96275666  0.56499684  0.68931884    -0.07800
C1673       C  0.99197504  0.58191714  0.71945762     0.05800
C1674       C  0.51232852  0.62463571  0.72551027    -0.02800
Br1675     Br  0.55359594  0.65248692  0.76443042    -0.02500
H1676       H  0.51848674  0.68172909  0.70815947     0.09700
H1677       H  0.94624802  0.53221985  0.68467977     0.07700
Br1678     Br  0.90808263  0.56273695  0.63037020    -0.02900
C1679       C  0.49354464  0.77567264  0.70482061    -0.09600
C1680       C  0.95739349  0.75479684  0.68302382     0.06600
C1681       C  0.92742038  0.76619360  0.68740531    -0.03300
C1682       C  0.93392428  0.79778045  0.71360458    -0.07800
C1683       C  0.97005040  0.81857924  0.73594478     0.05800
C1684       C  0.49997574  0.80679085  0.73133137    -0.02800
Br1685     Br  0.54835148  0.82798411  0.76293992    -0.02500
H1686       H  0.51656677  0.76667699  0.70210342     0.09700
H1687       H  0.90995933  0.80524286  0.71732756     0.07700
Br1688     Br  0.87593255  0.73736776  0.66095080    -0.02900
C1689       C  0.78827545  0.95931168  0.94966213    -0.09600
C1690       C  0.79172467  0.99709096  0.95873825     0.06600
C1691       C  0.82204011  0.03239183  0.94021043    -0.03300
C1692       C  0.84884882  0.02949455  0.91348608    -0.07800
C1693       C  0.84504026  0.99138489  0.90335864     0.05800
C1694       C  0.81377408  0.95585609  0.92191111    -0.02800
Br1695     Br  0.80137323  0.90089576  0.91027321    -0.02500
H1696       H  0.76411947  0.93189364  0.46299500     0.09700
H1697       H  0.87196526  0.55719292  0.89969097     0.07700
Br1698     Br  0.82717757  0.58493826  0.94985123    -0.02900
C1699       C  0.63136384  0.99825956  0.97695108    -0.09600
C1700       C  0.65306904  0.97895875  0.96414779     0.06600
C1701       C  0.63783430  0.95166633  0.93188829    -0.03400
C1702       C  0.60448054  0.94771561  0.91086848    -0.07800
C1703       C  0.58392318  0.96850810  0.92245160     0.05800
C1704       C  0.59649066  0.99240428  0.95706827    -0.02800
Br1705     Br  0.56860736  0.51896176  0.97802923    -0.02500
H1706       H  0.64192925  0.51860868  0.50218863     0.09700
H1707       H  0.59471871  0.92842194  0.88487422     0.07700
Br1708     Br  0.65949245  0.91712062  0.91614683    -0.02900
C1709       C  0.81164488  0.97554824  0.66854371    -0.09600
C1710       C  0.79734509  0.00274373  0.67679479     0.06600
C1711       C  0.81441051  0.03020711  0.70865050    -0.03300
C1712       C  0.84175664  0.02698555  0.73395653    -0.07800
C1713       C  0.85335692  0.99726166  0.72768223     0.05800
C1714       C  0.83993060  0.97321517  0.69322269    -0.02800
Br1715     Br  0.86180330  0.93973354  0.67629717    -0.02500
H1716       H  0.80005791  0.95531674  0.64326486     0.09700
H1717       H  0.85314224  0.54714023  0.75930528     0.07700
Br1718     Br  0.80215311  0.57320024  0.71822571    -0.02900
C1719       C  0.60649300  0.94468004  0.73168206    -0.09600
C1720       C  0.58831357  0.96827200  0.72260667     0.06600
C1721       C  0.60182398  0.99344789  0.68904268    -0.03300
C1722       C  0.63453787  0.99645095  0.66695990    -0.07800
C1723       C  0.65376354  0.97405203  0.67703220     0.05800
C1724       C  0.63828847  0.94671440  0.70887185    -0.02800
Br1725     Br  0.65799677  0.91004261  0.72148421    -0.02500
H1726       H  0.59594166  0.92454797  0.75683204     0.09700
H1727       H  0.64582169  0.51737706  0.64241814     0.07700
Br1728     Br  0.57905748  0.52667470  0.67325396    -0.02900
C1729       C  0.87352775  0.88017370  0.95591426    -0.09600
C1730       C  0.87681079  0.87262845  0.91589114     0.06600
C1731       C  0.85156164  0.83255071  0.90107945    -0.03300
C1732       C  0.82653397  0.80131665  0.92638087    -0.07800
C1733       C  0.82098043  0.80871680  0.96582754     0.05800
C1734       C  0.84487338  0.84926235  0.98051055    -0.02800
Br1735     Br  0.83803157  0.86632573  0.53199539    -0.02500
H1736       H  0.89184671  0.91080066  0.96764664     0.09700
H1737       H  0.81044511  0.77069868  0.91427109     0.07700
Br1738     Br  0.84752463  0.81632151  0.84664793    -0.02900
C1739       C  0.65461129  0.65883409  0.96906924    -0.09600
C1740       C  0.69600270  0.67280601  0.96327296     0.06600
C1741       C  0.70804951  0.65490684  0.93332856    -0.03300
C1742       C  0.67884726  0.62537941  0.90824593    -0.07800
C1743       C  0.63740740  0.61316276  0.91234010     0.05800
C1744       C  0.62543337  0.62932776  0.94405405    -0.02800
Br1745     Br  0.57004681  0.61138515  0.95660738    -0.02500
H1746       H  0.64500561  0.67165729  0.99263631     0.09700
H1747       H  0.68879244  0.61303003  0.88453963     0.07700
Br1748     Br  0.76396476  0.66945146  0.92576061    -0.02900
C1749       C  0.84096420  0.85419335  0.73290220    -0.09600
C1750       C  0.88171700  0.87467409  0.72024072     0.06600
C1751       C  0.89179184  0.86276597  0.68447664    -0.03300
C1752       C  0.86183806  0.82867343  0.66406923    -0.07800
C1753       C  0.82144387  0.80687438  0.67798430     0.05800
C1754       C  0.81084428  0.82140508  0.71179877    -0.02800
Br1755     Br  0.75567053  0.80010625  0.72951948    -0.02500
H1756       H  0.83229690  0.86404972  0.75946207     0.09700
H1757       H  0.87045770  0.81856880  0.63767386     0.07700
Br1758     Br  0.94590271  0.89005952  0.66316880    -0.02900
C1759       C  0.63309190  0.63314569  0.70889909    -0.09600
C1760       C  0.64379866  0.61244780  0.73641839     0.06600
C1761       C  0.68365516  0.61788415  0.73485911    -0.03300
C1762       C  0.71195014  0.64488919  0.70764590    -0.07800
C1763       C  0.70152135  0.66650671  0.68119241     0.05800
C1764       C  0.66138208  0.65981088  0.68145293    -0.02800
Br1765     Br  0.64442332  0.68867354  0.64705760    -0.02500
H1766       H  0.60264232  0.62895722  0.70898063     0.09700
H1767       H  0.74281009  0.65011169  0.70797246     0.07700
Br1768     Br  0.70313486  0.59241302  0.77088137    -0.02900
loop_ 
_geom_bond_atom_site_label_1 
_geom_bond_atom_site_label_2 
_geom_bond_distance 
_geom_bond_site_symmetry_2 
_ccdc_geom_bond_type 
C1            C2   1.398       .  A
C1            C6   1.405       .  A
C1          C216   1.485       .  S
C2            C3   1.401       .  A
C2            H7   1.083       .  S
C3            C4   1.399       .  A
C3          C206   1.486       .  S
C4            C5   1.413       .  A
C4            H8   1.078       .  S
C5            C6   1.420       .  A
C5           C12   1.511       .  S
C6            H9   1.078       .  S
C10          C15   1.393       .  A
C10         C232   1.398       .  A
C10         C193   1.478       .  S
C11          C12   1.414       .  A
C11         C231   1.398   1_554  A
C11          H16   1.077       .  S
C12          C13   1.422       .  A
C13         C235   1.407   1_554  A
C13          H17   1.077       .  S
C14          C15   1.406       .  A
C14         C234   1.407       .  A
C14         C186   1.505       .  S
C15          H18   1.083       .  S
C19          C20   1.406       .  A
C19          C24   1.399       .  A
C19         C163   1.484       .  S
C20          C21   1.418       .  A
C20          H25   1.078       .  S
C21          C22   1.420       .  A
C21          C32   1.520       .  S
C22          C23   1.402       .  A
C22          H26   1.075       .  S
C23          C24   1.397       .  A
C23         C176   1.489       .  S
C24          H27   1.083       .  S
C28          C29   1.395       .  A
C28         C254   1.406       .  A
C28         C143   1.478       .  S
C29          C30   1.397       .  A
C29          H34   1.084       .  S
C30         C252   1.401       .  A
C30         C153   1.488       .  S
C31          C32   1.418       .  A
C31         C251   1.401   1_554  A
C31          H35   1.074       .  S
C32          C33   1.421       .  A
C33         C249   1.406   1_554  A
C33          H36   1.078       .  S
C37          C38   1.406       .  A
C37          C42   1.397       .  A
C37         C133   1.483       .  S
C38          C39   1.420       .  A
C38          H43   1.077       .  S
C39          C40   1.421       .  A
C39          C48   1.519       .  S
C40          C41   1.398       .  A
C40          H44   1.074       .  S
C41          C42   1.397       .  A
C41         C123   1.487       .  S
C42          H45   1.085       .  S
C46          C51   1.398       .  A
C46         C268   1.406       .  A
C46         C113   1.484       .  S
C47          C48   1.421       .  A
C47         C267   1.406   1_554  A
C47          H52   1.078       .  S
C48          C49   1.419       .  A
C49         C271   1.399   1_554  A
C49          H53   1.070       .  S
C50          C51   1.401       .  A
C50         C270   1.399       .  A
C50         C106   1.495       .  S
C51          H54   1.084       .  S
O55         Mn81   2.082       .  S
O55         C524   1.269   1_545  A
C56         C196   1.485       .  S
C56          O89   1.272       .  A
C56          O86   1.274       .  A
O57         Mn64   2.174       .  S
O57         Mn75   2.107       .  S
O57         Mn79   2.165       .  S
O57        Mn523   2.134       .  S
O58         Mn92   2.118       .  S
O58          C68   1.275       .  A
O59         Mn75   2.125       .  S
O59          C82   1.278       .  A
O60         Mn79   2.119       .  S
O60          C87   1.252       .  A
O61         Mn81   1.968       .  S
O61        Mn976   1.975       .  S
O61          C77   1.219       .  S
C62         C173   1.482       .  S
C62          O65   1.252       .  A
C62          O88   1.221       .  S
O63         Mn64   2.176       .  S
O63         Mn97   2.119       .  S
O63         Mn79   2.173       .  S
O63        Mn967   2.117       .  S
Mn64         O69   2.128       .  S
Mn64        O977   2.118       .  S
Mn64        O538   2.117       .  S
Mn64       O1396   2.173       .  S
O65        Mn963   2.097   1_455  S
O66         Mn73   2.081       .  S
O66          C68   1.267       .  A
C67         C156   1.481       .  S
C67          O93   1.256       .  A
C67          O80   1.217       .  S
C68         C213   1.491       .  S
O69          C94   1.255       .  A
O70         Mn73   2.138       .  S
O70         Mn92   2.114       .  S
O70       Mn1390   2.173   1_445  S
O70       Mn1405   2.166   1_445  S
O71         Mn75   1.972       .  S
O71         Mn97   1.947       .  S
O71          C94   1.212       .  S
C72         C136   1.491       .  S
C72          O74   1.270       .  A
C72         O982   1.273       .  A
Mn73         O86   2.104       .  S
Mn73        O530   1.966   1_545  S
Mn73        O522   1.947   1_545  S
O74         Mn97   2.085       .  S
Mn75         O91   2.085       .  S
Mn75         O85   1.951       .  S
O76         Mn81   2.110       .  S
O76         C520   1.275   1_545  A
C77         C126   1.481       .  S
C77          O95   1.255       .  A
C78         C146   1.497       .  S
C78          O91   1.268       .  A
C78         O518   1.275       .  A
Mn79        O949   2.097       .  S
Mn79        O537   2.110       .  S
Mn79       O1396   2.166       .  S
O80         Mn83   1.958       .  S
O80        Mn515   1.947       .  S
Mn81        O499   2.134   1_545  S
Mn81         O99   1.939       .  S
C82         C166   1.485       .  S
C82         O497   1.269       .  A
Mn83         O90   2.096       .  S
Mn83         O98   2.104       .  S
Mn83        O947   2.117   1_455  S
Mn83         O88   1.968       .  S
C84         C116   1.498       .  S
C84         O100   1.273       .  A
C84         O974   1.270       .  A
O85         Mn97   1.950       .  S
O85          C87   1.211       .  S
C87         C203   1.477       .  S
O88        Mn515   1.966       .  S
O89         Mn92   2.101       .  S
O90         C968   1.270   1_455  A
Mn92        O945   1.975   1_455  S
Mn92        O983   1.972   1_455  S
O93        Mn948   2.118   1_455  S
C94         C183   1.488       .  S
O95        Mn521   2.110   1_545  S
O96        Mn506   2.117   1_545  S
O96         C101   1.255       .  A
Mn97        O100   2.111       .  S
O98         C956   1.273   1_455  A
O99        Mn976   1.972       .  S
O99         C101   1.214       .  S
C101        C103   1.484       .  S
C102        C103   1.405       .  A
C102        C107   1.406       .  A
C102        H109   1.083       .  S
C103        C988   1.413       .  A
C104        C105   1.391       .  A
C104        C987   1.413       .  A
C104       Br111   1.919   1_655  S
C105        C990   1.404       .  A
C105        H110   1.083   1_655  S
C106        C107   1.419       .  A
C106        C989   1.404       .  A
C107       Br108   1.922       .  S
C112        C117   1.398       .  A
C112        C997   1.400       .  A
C112        H119   1.084   1_655  S
C113        C114   1.406       .  A
C113        C996   1.400       .  A
C114        C115   1.406       .  A
C114       Br121   1.918       .  S
C115        C116   1.412       .  A
C115        H120   1.081       .  S
C116       C1001   1.420       .  A
C117       C1000   1.420       .  A
C117       Br118   1.921   1_655  S
C122        C127   1.391       .  A
C122       C1007   1.400   1_455  A
C122        H129   1.084       .  S
C123        C124   1.414       .  A
C123       C1006   1.400       .  A
C124        C125   1.405       .  A
C124       Br131   1.920       .  S
C125        C126   1.407       .  A
C125        H130   1.083       .  S
C126       C1011   1.412       .  A
C127       C1010   1.412   1_455  A
C127       Br128   1.913       .  S
C132        C137   1.397       .  A
C132       C1017   1.404       .  A
C132        H139   1.084   1_655  S
C133        C134   1.406       .  A
C133       C1016   1.404       .  A
C134        C135   1.403       .  A
C134       Br141   1.919       .  S
C135        C136   1.413       .  A
C135        H140   1.082       .  S
C136       C1021   1.415       .  A
C137       C1020   1.415       .  A
C137       Br138   1.922   1_655  S
C142        C143   1.397       .  A
C142        C147   1.398       .  A
C142        H370   1.084       .  S
C143        C144   1.405       .  A
C144        C145   1.403       .  A
C144       Br593   1.918       .  S
C145        C146   1.411       .  A
C145        H592   1.083       .  S
C146        C147   1.423       .  A
C147       Br148   1.922       .  S
H149        C363   1.084       .  S
H150        C587   1.083       .  S
Br151       C586   1.918       .  S
C152        C153   1.407       .  A
C152        C157   1.401       .  A
C152        H822   1.083       .  S
C153        C154   1.412       .  A
C154        C155   1.395       .  A
C154       Br161   1.924       .  S
C155        C156   1.405       .  A
C155        H160   1.083       .  S
C156        C157   1.409       .  A
C157       Br600   1.912       .  S
Br158       C599   1.912   1_545  S
H159        C815   1.083   1_544  S
C162        C163   1.403       .  A
C162        C167   1.400       .  A
C162        H169   1.083       .  S
C163        C164   1.410       .  A
C164        C165   1.400       .  A
C164       Br613   1.920       .  S
C165        C166   1.407       .  A
C165        H612   1.083       .  S
C166        C167   1.409       .  A
C167       Br168   1.906       .  S
H170        C607   1.083       .  S
Br171       C606   1.920       .  S
C172        C173   1.405       .  A
C172        C177   1.399       .  A
C172        H179   1.083       .  S
C173        C174   1.412       .  A
C174        C175   1.401       .  A
C174       Br623   1.920       .  S
C175        C176   1.406       .  A
C175        H622   1.084       .  S
C176        C177   1.411       .  A
C177       Br178   1.921       .  S
H180        C617   1.084   1_545  S
Br181       C616   1.920   1_545  S
C182        C183   1.406       .  A
C182        C187   1.409       .  A
C182        H189   1.083       .  S
C183        C184   1.417       .  A
C184        C185   1.388       .  A
C184       Br191   1.928       .  S
C185        C186   1.404       .  A
C185        H190   1.082       .  S
C186        C187   1.423       .  A
C187       Br409   1.921       .  S
Br188       C408   1.921   1_554  S
C192        C193   1.396       .  A
C192        C197   1.398       .  A
C192        H199   1.084       .  S
C193        C194   1.411       .  A
C194        C195   1.400       .  A
C194       Br201   1.921       .  S
C195        C196   1.405       .  A
C195        H200   1.084       .  S
C196        C197   1.414       .  A
C197       Br198   1.903       .  S
C202        C203   1.406       .  A
C202        C207   1.391       .  A
C202        H209   1.084       .  S
C203        C204   1.408       .  A
C204        C205   1.402       .  A
C204       Br211   1.919       .  S
C205        C206   1.410       .  A
C205        H210   1.083       .  S
C206        C207   1.410       .  A
C207       Br208   1.923       .  S
C212        C213   1.406       .  A
C212        C217   1.402       .  A
C212        H219   1.083       .  S
C213        C214   1.419       .  A
C214        C215   1.401       .  A
C214       Br221   1.922       .  S
C215        C216   1.401       .  A
C215        H220   1.084       .  S
C216        C217   1.411       .  A
C217       Br218   1.919       .  S
C222        C223   1.398       .  A
C222        C227   1.405       .  A
C222        C437   1.485       .  S
C223        C224   1.401       .  A
C223        H228   1.083       .  S
C224        C225   1.399       .  A
C224        C427   1.486       .  S
C225        C226   1.413       .  A
C225        H229   1.078       .  S
C226        C227   1.420       .  A
C226        C233   1.511       .  S
C227        H230   1.078       .  S
C231        C236   1.393       .  A
C231        C414   1.478       .  S
C232        C233   1.414       .  A
C232        H237   1.077       .  S
C233        C234   1.422       .  A
C234        H238   1.077       .  S
C235        C236   1.406       .  A
C235        C407   1.505       .  S
C236        H239   1.083       .  S
C240        C241   1.406       .  A
C240        C245   1.399       .  A
C240        C384   1.484       .  S
C241        C242   1.418       .  A
C241        H246   1.078       .  S
C242        C243   1.420       .  A
C242        C253   1.520       .  S
C243        C244   1.402       .  A
C243        H247   1.075       .  S
C244        C245   1.397       .  A
C244        C397   1.489       .  S
C245        H248   1.083       .  S
C249        C250   1.395       .  A
C249        C364   1.478       .  S
C250        C251   1.397       .  A
C250        H255   1.084       .  S
C251        C374   1.488       .  S
C252        C253   1.418       .  A
C252        H256   1.074       .  S
C253        C254   1.421       .  A
C254        H257   1.078       .  S
C258        C259   1.406       .  A
C258        C263   1.397       .  A
C258        C354   1.483       .  S
C259        C260   1.420       .  A
C259        H264   1.077       .  S
C260        C261   1.421       .  A
C260        C269   1.519       .  S
C261        C262   1.398       .  A
C261        H265   1.074       .  S
C262        C263   1.397       .  A
C262        C344   1.487       .  S
C263        H266   1.085       .  S
C267        C272   1.398       .  A
C267        C334   1.484       .  S
C268        C269   1.421       .  A
C268        H273   1.078       .  S
C269        C270   1.419       .  A
C270        H274   1.070       .  S
C271        C272   1.401       .  A
C271        C327   1.495       .  S
C272        H275   1.084       .  S
O276       Mn302   2.082       .  S
O276        C745   1.269   1_545  A
C277        C417   1.485       .  S
C277        O310   1.272       .  A
C277        O307   1.274       .  A
O278       Mn285   2.174       .  S
O278       Mn296   2.107       .  S
O278       Mn300   2.165       .  S
O278       Mn744   2.134       .  S
O279       Mn313   2.118       .  S
O279        C289   1.275       .  A
O280       Mn296   2.125       .  S
O280        C303   1.278       .  A
O281       Mn300   2.119       .  S
O281        C308   1.252       .  A
O282      Mn1197   1.975       .  S
O282       Mn302   1.968       .  S
O282        C298   1.219       .  S
C283        C394   1.482       .  S
C283        O286   1.252       .  A
C283        O309   1.221       .  S
O284      Mn1188   2.117       .  S
O284       Mn285   2.176       .  S
O284       Mn318   2.119       .  S
O284       Mn300   2.173       .  S
Mn285      O1198   2.118       .  S
Mn285       O290   2.128       .  S
Mn285       O759   2.117       .  S
Mn285      O1617   2.173       .  S
O286      Mn1184   2.097   1_455  S
O287       Mn294   2.081       .  S
O287        C289   1.267       .  A
C288        C377   1.481       .  S
C288        O314   1.256       .  A
C288        O301   1.217       .  S
C289        C434   1.491       .  S
O290        C315   1.255       .  A
O291      Mn1611   2.173   1_445  S
O291       Mn294   2.138       .  S
O291       Mn313   2.114       .  S
O291      Mn1626   2.166   1_445  S
O292       Mn296   1.972       .  S
O292       Mn318   1.947       .  S
O292        C315   1.212       .  S
C293        C357   1.491       .  S
C293       O1203   1.273       .  A
C293        O295   1.270       .  A
Mn294       O307   2.104       .  S
Mn294       O751   1.966   1_545  S
Mn294       O743   1.947   1_545  S
O295       Mn318   2.085       .  S
Mn296       O312   2.085       .  S
Mn296       O306   1.951       .  S
O297       Mn302   2.110       .  S
O297        C741   1.275   1_545  A
C298        C347   1.481       .  S
C298        O316   1.255       .  A
C299        C367   1.497       .  S
C299        O739   1.275       .  A
C299        O312   1.268       .  A
Mn300      O1170   2.097       .  S
Mn300       O758   2.110       .  S
Mn300      O1617   2.166       .  S
O301       Mn736   1.947       .  S
O301       Mn304   1.958       .  S
Mn302       O720   2.134   1_545  S
Mn302       O320   1.939       .  S
C303        C387   1.485       .  S
C303        O718   1.269       .  A
Mn304       O311   2.096       .  S
Mn304       O319   2.104       .  S
Mn304      O1168   2.117   1_455  S
Mn304       O309   1.968       .  S
C305        C337   1.498       .  S
C305       O1195   1.270       .  A
C305        O321   1.273       .  A
O306       Mn318   1.950       .  S
O306        C308   1.211       .  S
C308        C424   1.477       .  S
O309       Mn736   1.966       .  S
O310       Mn313   2.101       .  S
O311       C1189   1.270   1_455  A
Mn313      O1166   1.975   1_455  S
Mn313      O1204   1.972   1_455  S
O314      Mn1169   2.118   1_455  S
C315        C404   1.488       .  S
O316       Mn742   2.110   1_545  S
O317       Mn727   2.117   1_545  S
O317        C322   1.255       .  A
Mn318       O321   2.111       .  S
O319       C1177   1.273   1_455  A
O320      Mn1197   1.972       .  S
O320        C322   1.214       .  S
C322        C324   1.484       .  S
C323        C324   1.405       .  A
C323        C328   1.406       .  A
C323        H330   1.083       .  S
C324       C1209   1.413       .  A
C325       C1208   1.413       .  A
C325        C326   1.391       .  A
C325       Br332   1.919   1_655  S
C326       C1211   1.404       .  A
C326        H331   1.083   1_655  S
C327       C1210   1.404       .  A
C327        C328   1.419       .  A
C328       Br329   1.922   1_556  S
C333       C1218   1.400       .  A
C333        C338   1.398       .  A
C333        H340   1.084   1_655  S
C334       C1217   1.400       .  A
C334        C335   1.406       .  A
C335        C336   1.406       .  A
C335       Br342   1.918       .  S
C336        C337   1.412       .  A
C336        H341   1.081       .  S
C337       C1222   1.420       .  A
C338       C1221   1.420       .  A
C338       Br339   1.921   1_655  S
C343       C1228   1.400   1_455  A
C343        C348   1.391       .  A
C343        H350   1.084       .  S
C344       C1227   1.400       .  A
C344        C345   1.414       .  A
C345        C346   1.405       .  A
C345       Br352   1.920       .  S
C346        C347   1.407       .  A
C346        H351   1.083       .  S
C347       C1232   1.412       .  A
C348       C1231   1.412   1_455  A
C348       Br349   1.913       .  S
C353       C1238   1.404       .  A
C353        C358   1.397       .  A
C353        H360   1.084   1_655  S
C354       C1237   1.404       .  A
C354        C355   1.406       .  A
C355        C356   1.403       .  A
C355       Br362   1.919       .  S
C356        C357   1.413       .  A
C356        H361   1.082       .  S
C357       C1242   1.415       .  A
C358       C1241   1.415       .  A
C358       Br359   1.922   1_655  S
C363        C364   1.397       .  A
C363        C368   1.398       .  A
C364        C365   1.405       .  A
C365        C366   1.403       .  A
C365       Br814   1.918       .  S
C366        C367   1.411       .  A
C366        H813   1.083       .  S
C367        C368   1.423       .  A
C368       Br369   1.922       .  S
H371        C808   1.083       .  S
Br372       C807   1.918       .  S
C373        C374   1.407       .  A
C373        C378   1.401       .  A
C373        H601   1.083   1_556  S
C374        C375   1.412       .  A
C375        C376   1.395       .  A
C375       Br382   1.924       .  S
C376        C377   1.405       .  A
C376        H381   1.083       .  S
C377        C378   1.409       .  A
C378       Br821   1.912       .  S
Br379       C820   1.912   1_545  S
H380        C594   1.083   1_545  S
C383        C384   1.403       .  A
C383        C388   1.400       .  A
C383        H390   1.083       .  S
C384        C385   1.410       .  A
C385        C386   1.400       .  A
C385       Br834   1.920       .  S
C386        C387   1.407       .  A
C386        H833   1.083       .  S
C387        C388   1.409       .  A
C388       Br389   1.906       .  S
H391        C828   1.083       .  S
Br392       C827   1.920       .  S
C393        C394   1.405       .  A
C393        C398   1.399       .  A
C393        H400   1.083       .  S
C394        C395   1.412       .  A
C395        C396   1.401       .  A
C395       Br844   1.920       .  S
C396        C397   1.406       .  A
C396        H843   1.084       .  S
C397        C398   1.411       .  A
C398       Br399   1.921       .  S
H401        C838   1.084   1_545  S
Br402       C837   1.920   1_545  S
C403        C404   1.406       .  A
C403        C408   1.409       .  A
C403        H410   1.083       .  S
C404        C405   1.417       .  A
C405        C406   1.388       .  A
C405       Br412   1.928       .  S
C406        C407   1.404       .  A
C406        H411   1.082       .  S
C407        C408   1.423       .  A
C413        C414   1.396       .  A
C413        C418   1.398       .  A
C413        H420   1.084       .  S
C414        C415   1.411       .  A
C415        C416   1.400       .  A
C415       Br422   1.921       .  S
C416        C417   1.405       .  A
C416        H421   1.084       .  S
C417        C418   1.414       .  A
C418       Br419   1.903       .  S
C423        C424   1.406       .  A
C423        C428   1.391       .  A
C423        H430   1.084       .  S
C424        C425   1.408       .  A
C425        C426   1.402       .  A
C425       Br432   1.919       .  S
C426        C427   1.410       .  A
C426        H431   1.083       .  S
C427        C428   1.410       .  A
C428       Br429   1.923       .  S
C433        C434   1.406       .  A
C433        C438   1.402       .  A
C433        H440   1.083       .  S
C434        C435   1.419       .  A
C435        C436   1.401       .  A
C435       Br442   1.922       .  S
C436        C437   1.401       .  A
C436        H441   1.084       .  S
C437        C438   1.411       .  A
C438       Br439   1.919       .  S
C443        C444   1.398       .  A
C443        C448   1.405       .  A
C443        C658   1.485       .  S
C444        C445   1.401       .  A
C444        H449   1.083       .  S
C445        C446   1.399       .  A
C445        C648   1.486       .  S
C446        C447   1.413       .  A
C446        H450   1.078       .  S
C447        C448   1.420       .  A
C447        C454   1.511       .  S
C448        H451   1.078       .  S
C452        C674   1.398       .  A
C452        C457   1.393       .  A
C452        C635   1.478       .  S
C453        C673   1.398   1_554  A
C453        C454   1.414       .  A
C453        H458   1.077       .  S
C454        C455   1.422       .  A
C455        C677   1.407   1_554  A
C455        H459   1.077       .  S
C456        C676   1.407       .  A
C456        C457   1.406       .  A
C456        C628   1.505       .  S
C457        H460   1.083       .  S
C461        C462   1.406       .  A
C461        C466   1.399       .  A
C461        C605   1.484   1_565  S
C462        C463   1.418       .  A
C462        H467   1.078   1_565  S
C463        C464   1.420       .  A
C463        C474   1.520       .  S
C464        C465   1.402       .  A
C464        H468   1.075       .  S
C465        C466   1.397       .  A
C465        C618   1.489       .  S
C466        H469   1.083       .  S
C470        C471   1.395       .  A
C470        C696   1.406       .  A
C470        C585   1.478       .  S
C471        C472   1.397       .  A
C471        H476   1.084       .  S
C472        C694   1.401       .  A
C472        C595   1.488       .  S
C473        C693   1.401   1_554  A
C473        C474   1.418       .  A
C473        H477   1.074       .  S
C474        C475   1.421       .  A
C475        C691   1.406   1_554  A
C475        H478   1.078       .  S
C479        C480   1.406       .  A
C479        C484   1.397       .  A
C479        C575   1.483       .  S
C480        C481   1.420       .  A
C480        H485   1.077       .  S
C481        C482   1.421       .  A
C481        C490   1.519       .  S
C482        C483   1.398       .  A
C482        H486   1.074       .  S
C483        C484   1.397       .  A
C483        C565   1.487       .  S
C484        H487   1.085       .  S
C488        C710   1.406       .  A
C488        C493   1.398       .  A
C488        C555   1.484       .  S
C489        C709   1.406   1_554  A
C489        C490   1.421       .  A
C489        H494   1.078       .  S
C490        C491   1.419       .  A
C491        C713   1.399   1_554  A
C491        H495   1.070       .  S
C492        C712   1.399       .  A
C492        C493   1.401       .  A
C492        C548   1.495       .  S
C493        H496   1.084       .  S
O497       Mn523   2.082       .  S
C498        C638   1.485       .  S
C498        O531   1.272       .  A
C498        O528   1.274       .  A
O499       Mn506   2.174       .  S
O499       Mn517   2.107       .  S
O499       Mn521   2.165       .  S
O500       Mn534   2.118       .  S
O500        C510   1.275       .  A
O501       Mn517   2.125       .  S
O501        C524   1.278       .  A
O502       Mn521   2.119       .  S
O502        C529   1.252       .  A
O503      Mn1418   1.975       .  S
O503       Mn523   1.968       .  S
O503        C519   1.219       .  S
C504        C615   1.482       .  S
C504        O507   1.252       .  A
C504        O530   1.221       .  S
O505      Mn1409   2.117       .  S
O505       Mn506   2.176       .  S
O505       Mn539   2.119       .  S
O505       Mn521   2.173       .  S
Mn506      O1419   2.118       .  S
Mn506       O511   2.128       .  S
Mn506       O954   2.173   1_565  S
O507      Mn1405   2.097   1_455  S
O508       Mn515   2.081       .  S
O508        C510   1.267       .  A
C509        C598   1.481       .  S
C509        O535   1.256       .  A
C509        O522   1.217       .  S
C510        C655   1.491       .  S
O511        C536   1.255       .  A
O512       Mn948   2.173   1_455  S
O512       Mn515   2.138       .  S
O512       Mn534   2.114       .  S
O512       Mn963   2.166   1_455  S
O513       Mn517   1.972       .  S
O513       Mn539   1.947       .  S
O513        C536   1.212       .  S
C514        C578   1.491       .  S
C514       O1424   1.273       .  A
C514        O516   1.270       .  A
Mn515       O528   2.104       .  S
O516       Mn539   2.085       .  S
Mn517       O533   2.085       .  S
Mn517       O527   1.951       .  S
O518       Mn523   2.110       .  S
C519        C568   1.481       .  S
C519        O537   1.255       .  A
C520        C588   1.497       .  S
C520        O533   1.268       .  A
Mn521      O1391   2.097       .  S
Mn521       O954   2.166   1_565  S
O522       Mn525   1.958       .  S
Mn523       O541   1.939       .  S
C524        C608   1.485       .  S
Mn525       O532   2.096       .  S
Mn525       O540   2.104       .  S
Mn525      O1389   2.117   1_455  S
Mn525       O530   1.968       .  S
C526        C558   1.498       .  S
C526       O1416   1.270       .  A
C526        O542   1.273       .  A
O527       Mn539   1.950       .  S
O527        C529   1.211       .  S
C529        C645   1.477       .  S
O531       Mn534   2.101       .  S
O532       C1410   1.270   1_455  A
Mn534      O1387   1.975   1_455  S
Mn534      O1425   1.972   1_455  S
O535      Mn1390   2.118   1_455  S
C536        C625   1.488       .  S
O538        C543   1.255       .  A
Mn539       O542   2.111       .  S
O540       C1398   1.273   1_455  A
O541      Mn1418   1.972       .  S
O541        C543   1.214       .  S
C543        C545   1.484       .  S
C544        C545   1.405       .  A
C544        C549   1.406       .  A
C544        H551   1.083       .  S
C545       C1430   1.413       .  A
C546       C1429   1.413       .  A
C546        C547   1.391       .  A
C546       Br553   1.919   1_655  S
C547       C1432   1.404       .  A
C547        H552   1.083   1_655  S
C548       C1431   1.404       .  A
C548        C549   1.419       .  A
C549       Br550   1.922       .  S
C554       C1439   1.400       .  A
C554        C559   1.398       .  A
C554        H561   1.084   1_655  S
C555       C1438   1.400       .  A
C555        C556   1.406       .  A
C556        C557   1.406       .  A
C556       Br563   1.918       .  S
C557        C558   1.412       .  A
C557        H562   1.081       .  S
C558       C1443   1.420       .  A
C559       C1442   1.420       .  A
C559       Br560   1.921   1_655  S
C564       C1449   1.400   1_455  A
C564        C569   1.391       .  A
C564        H571   1.084       .  S
C565       C1448   1.400       .  A
C565        C566   1.414       .  A
C566        C567   1.405       .  A
C566       Br573   1.920       .  S
C567        C568   1.407       .  A
C567        H572   1.083       .  S
C568       C1453   1.412       .  A
C569       C1452   1.412   1_455  A
C569       Br570   1.913       .  S
C574       C1459   1.404       .  A
C574        C579   1.397       .  A
C574        H581   1.084   1_655  S
C575       C1458   1.404       .  A
C575        C576   1.406       .  A
C576        C577   1.403       .  A
C576       Br583   1.919       .  S
C577        C578   1.413       .  A
C577        H582   1.082       .  S
C578       C1463   1.415       .  A
C579       C1462   1.415       .  A
C579       Br580   1.922   1_655  S
C584        C585   1.397       .  A
C584        C589   1.398       .  A
C584        H812   1.084       .  S
C585        C586   1.405   1_565  A
C586        C587   1.403       .  A
C587        C588   1.411   1_545  A
C588        C589   1.423       .  A
C589       Br590   1.922       .  S
H591        C805   1.084       .  S
C594        C595   1.407       .  A
C594        C599   1.401       .  A
C595        C596   1.412       .  A
C596        C597   1.395       .  A
C596       Br603   1.924       .  S
C597        C598   1.405       .  A
C597        H602   1.083       .  S
C598        C599   1.409       .  A
C604        C605   1.403   1_565  A
C604        C609   1.400       .  A
C604        H611   1.083       .  S
C605        C606   1.410       .  A
C606        C607   1.400       .  A
C607        C608   1.407   1_545  A
C608        C609   1.409       .  A
C609       Br610   1.906       .  S
C614        C615   1.405       .  A
C614        C619   1.399       .  A
C614        H621   1.083       .  S
C615        C616   1.412       .  A
C616        C617   1.401       .  A
C617        C618   1.406       .  A
C618        C619   1.411       .  A
C619       Br620   1.921       .  S
C624        C625   1.406       .  A
C624        C629   1.409       .  A
C624        H631   1.083       .  S
C625        C626   1.417       .  A
C626        C627   1.388       .  A
C626       Br633   1.928       .  S
C627        C628   1.404       .  A
C627        H632   1.082       .  S
C628        C629   1.423       .  A
C629       Br851   1.921       .  S
Br630       C850   1.921   1_554  S
C634        C635   1.396       .  A
C634        C639   1.398       .  A
C634        H641   1.084       .  S
C635        C636   1.411       .  A
C636        C637   1.400       .  A
C636       Br643   1.921       .  S
C637        C638   1.405       .  A
C637        H642   1.084       .  S
C638        C639   1.414       .  A
C639       Br640   1.903       .  S
C644        C645   1.406       .  A
C644        C649   1.391       .  A
C644        H651   1.084       .  S
C645        C646   1.408       .  A
C646        C647   1.402       .  A
C646       Br653   1.919       .  S
C647        C648   1.410       .  A
C647        H652   1.083       .  S
C648        C649   1.410       .  A
C649       Br650   1.923       .  S
C654        C655   1.406       .  A
C654        C659   1.402       .  A
C654        H661   1.083       .  S
C655        C656   1.419       .  A
C656        C657   1.401       .  A
C656       Br663   1.922       .  S
C657        C658   1.401       .  A
C657        H662   1.084       .  S
C658        C659   1.411       .  A
C659       Br660   1.919       .  S
C664        C665   1.398       .  A
C664        C669   1.405       .  A
C664        C879   1.485       .  S
C665        C666   1.401       .  A
C665        H670   1.083       .  S
C666        C667   1.399       .  A
C666        C869   1.486       .  S
C667        C668   1.413       .  A
C667        H671   1.078       .  S
C668        C669   1.420       .  A
C668        C675   1.511       .  S
C669        H672   1.078       .  S
C673        C678   1.393       .  A
C673        C856   1.478       .  S
C674        C675   1.414       .  A
C674        H679   1.077       .  S
C675        C676   1.422       .  A
C676        H680   1.077       .  S
C677        C678   1.406       .  A
C677        C849   1.505       .  S
C678        H681   1.083       .  S
C682        C683   1.406       .  A
C682        C687   1.399       .  A
C682        C826   1.484   1_565  S
C683        C684   1.418       .  A
C683        H688   1.078   1_565  S
C684        C685   1.420       .  A
C684        C695   1.520       .  S
C685        C686   1.402       .  A
C685        H689   1.075       .  S
C686        C687   1.397       .  A
C686        C839   1.489       .  S
C687        H690   1.083       .  S
C691        C692   1.395       .  A
C691        C806   1.478       .  S
C692        C693   1.397       .  A
C692        H697   1.084       .  S
C693        C816   1.488       .  S
C694        C695   1.418       .  A
C694        H698   1.074       .  S
C695        C696   1.421       .  A
C696        H699   1.078       .  S
C700        C701   1.406       .  A
C700        C705   1.397       .  A
C700        C796   1.483       .  S
C701        C702   1.420       .  A
C701        H706   1.077       .  S
C702        C703   1.421       .  A
C702        C711   1.519       .  S
C703        C704   1.398       .  A
C703        H707   1.074       .  S
C704        C705   1.397       .  A
C704        C786   1.487       .  S
C705        H708   1.085       .  S
C709        C714   1.398       .  A
C709        C776   1.484       .  S
C710        C711   1.421       .  A
C710        H715   1.078       .  S
C711        C712   1.419       .  A
C712        H716   1.070       .  S
C713        C714   1.401       .  A
C713        C769   1.495       .  S
C714        H717   1.084       .  S
O718       Mn744   2.082       .  S
C719        C859   1.485       .  S
C719        O752   1.272       .  A
C719        O749   1.274       .  A
O720       Mn727   2.174       .  S
O720       Mn738   2.107       .  S
O720       Mn742   2.165       .  S
O721       Mn755   2.118       .  S
O721        C731   1.275       .  A
O722       Mn738   2.125       .  S
O722        C745   1.278       .  A
O723       Mn742   2.119       .  S
O723        C750   1.252       .  A
O724      Mn1639   1.975       .  S
O724       Mn744   1.968       .  S
O724        C740   1.219       .  S
C725        C836   1.482       .  S
C725        O728   1.252       .  A
C725        O751   1.221       .  S
O726      Mn1630   2.117       .  S
O726       Mn727   2.176       .  S
O726       Mn760   2.119       .  S
O726       Mn742   2.173       .  S
Mn727      O1640   2.118       .  S
Mn727       O732   2.128       .  S
Mn727      O1175   2.173   1_565  S
O728      Mn1626   2.097   1_455  S
O729       Mn736   2.081       .  S
O729        C731   1.267       .  A
C730        C819   1.481       .  S
C730        O756   1.256       .  A
C730        O743   1.217       .  S
C731        C876   1.491       .  S
O732        C757   1.255       .  A
O733      Mn1169   2.173   1_455  S
O733       Mn736   2.138       .  S
O733       Mn755   2.114       .  S
O733      Mn1184   2.166   1_455  S
O734       Mn738   1.972       .  S
O734       Mn760   1.947       .  S
O734        C757   1.212       .  S
C735        C799   1.491       .  S
C735       O1645   1.273       .  A
C735        O737   1.270       .  A
Mn736       O749   2.104       .  S
O737       Mn760   2.085       .  S
Mn738       O754   2.085       .  S
Mn738       O748   1.951       .  S
O739       Mn744   2.110       .  S
C740        C789   1.481       .  S
C740        O758   1.255       .  A
C741        C809   1.497       .  S
C741        O754   1.268       .  A
Mn742      O1612   2.097       .  S
Mn742      O1175   2.166   1_565  S
O743       Mn746   1.958       .  S
Mn744       O762   1.939       .  S
C745        C829   1.485       .  S
Mn746       O753   2.096       .  S
Mn746       O761   2.104       .  S
Mn746      O1610   2.117   1_455  S
Mn746       O751   1.968       .  S
C747        C779   1.498       .  S
C747       O1637   1.270       .  A
C747        O763   1.273       .  A
O748       Mn760   1.950       .  S
O748        C750   1.211       .  S
C750        C866   1.477       .  S
O752       Mn755   2.101       .  S
O753       C1631   1.270   1_455  A
Mn755      O1608   1.975   1_455  S
Mn755      O1646   1.972   1_455  S
O756      Mn1611   2.118   1_455  S
C757        C846   1.488       .  S
O759        C764   1.255       .  A
Mn760       O763   2.111       .  S
O761       C1619   1.273   1_455  A
O762      Mn1639   1.972       .  S
O762        C764   1.214       .  S
C764        C766   1.484       .  S
C765        C766   1.405       .  A
C765        C770   1.406       .  A
C765        H772   1.083       .  S
C766       C1651   1.413       .  A
C767       C1650   1.413       .  A
C767        C768   1.391       .  A
C767       Br774   1.919   1_655  S
C768       C1653   1.404       .  A
C768        H773   1.083   1_655  S
C769       C1652   1.404       .  A
C769        C770   1.419       .  A
C770       Br771   1.922   1_556  S
C775       C1660   1.400       .  A
C775        C780   1.398       .  A
C775        H782   1.084   1_655  S
C776       C1659   1.400       .  A
C776        C777   1.406       .  A
C777        C778   1.406       .  A
C777       Br784   1.918       .  S
C778        C779   1.412       .  A
C778        H783   1.081       .  S
C779       C1664   1.420       .  A
C780       C1663   1.420       .  A
C780       Br781   1.921   1_655  S
C785       C1670   1.400   1_455  A
C785        C790   1.391       .  A
C785        H792   1.084       .  S
C786       C1669   1.400       .  A
C786        C787   1.414       .  A
C787        C788   1.405       .  A
C787       Br794   1.920       .  S
C788        C789   1.407       .  A
C788        H793   1.083       .  S
C789       C1674   1.412       .  A
C790       C1673   1.412   1_455  A
C790       Br791   1.913       .  S
C795       C1680   1.404       .  A
C795        C800   1.397       .  A
C795        H802   1.084   1_655  S
C796       C1679   1.404       .  A
C796        C797   1.406       .  A
C797        C798   1.403       .  A
C797       Br804   1.919       .  S
C798        C799   1.413       .  A
C798        H803   1.082       .  S
C799       C1684   1.415       .  A
C800       C1683   1.415       .  A
C800       Br801   1.922   1_655  S
C805        C806   1.397       .  A
C805        C810   1.398       .  A
C806        C807   1.405   1_565  A
C807        C808   1.403       .  A
C808        C809   1.411   1_545  A
C809        C810   1.423       .  A
C810       Br811   1.922       .  S
C815        C816   1.407       .  A
C815        C820   1.401       .  A
C816        C817   1.412       .  A
C817        C818   1.395       .  A
C817       Br824   1.924       .  S
C818        C819   1.405       .  A
C818        H823   1.083       .  S
C819        C820   1.409       .  A
C825        C826   1.403   1_565  A
C825        C830   1.400       .  A
C825        H832   1.083       .  S
C826        C827   1.410       .  A
C827        C828   1.400       .  A
C828        C829   1.407   1_545  A
C829        C830   1.409       .  A
C830       Br831   1.906       .  S
C835        C836   1.405       .  A
C835        C840   1.399       .  A
C835        H842   1.083       .  S
C836        C837   1.412       .  A
C837        C838   1.401       .  A
C838        C839   1.406       .  A
C839        C840   1.411       .  A
C840       Br841   1.921       .  S
C845        C846   1.406       .  A
C845        C850   1.409       .  A
C845        H852   1.083       .  S
C846        C847   1.417       .  A
C847        C848   1.388       .  A
C847       Br854   1.928       .  S
C848        C849   1.404       .  A
C848        H853   1.082       .  S
C849        C850   1.423       .  A
C855        C856   1.396       .  A
C855        C860   1.398       .  A
C855        H862   1.084       .  S
C856        C857   1.411       .  A
C857        C858   1.400       .  A
C857       Br864   1.921       .  S
C858        C859   1.405       .  A
C858        H863   1.084       .  S
C859        C860   1.414       .  A
C860       Br861   1.903       .  S
C865        C866   1.406       .  A
C865        C870   1.391       .  A
C865        H872   1.084       .  S
C866        C867   1.408       .  A
C867        C868   1.402       .  A
C867       Br874   1.919       .  S
C868        C869   1.410       .  A
C868        H873   1.083       .  S
C869        C870   1.410       .  A
C870       Br871   1.923       .  S
C875        C876   1.406       .  A
C875        C880   1.402       .  A
C875        H882   1.083       .  S
C876        C877   1.419       .  A
C877        C878   1.401       .  A
C877       Br884   1.922       .  S
C878        C879   1.401       .  A
C878        H883   1.084       .  S
C879        C880   1.411       .  A
C880       Br881   1.919       .  S
C885        C886   1.398       .  A
C885        C890   1.405       .  A
C885       C1100   1.485       .  S
C886        C887   1.401       .  A
C886        H891   1.083       .  S
C887        C888   1.399       .  A
C887       C1090   1.486       .  S
C888        C889   1.413       .  A
C888        H892   1.078       .  S
C889        C890   1.420       .  A
C889        C896   1.511       .  S
C890        H893   1.078       .  S
C894       C1116   1.398       .  A
C894        C899   1.393       .  A
C894       C1077   1.478       .  S
C895       C1115   1.398   1_554  A
C895        C896   1.414       .  A
C895        H900   1.077       .  S
C896        C897   1.422       .  A
C897       C1119   1.407   1_554  A
C897        H901   1.077       .  S
C898       C1118   1.407       .  A
C898        C899   1.406       .  A
C898       C1070   1.505       .  S
C899        H902   1.083       .  S
C903        C904   1.406       .  A
C903        C908   1.399       .  A
C903       C1047   1.484       .  S
C904        C905   1.418       .  A
C904        H909   1.078       .  S
C905        C906   1.420       .  A
C905        C916   1.520       .  S
C906        C907   1.402       .  A
C906        H910   1.075       .  S
C907        C908   1.397       .  A
C907       C1060   1.489       .  S
C908        H911   1.083       .  S
C912        C913   1.395       .  A
C912       C1138   1.406       .  A
C912       C1027   1.478       .  S
C913        C914   1.397       .  A
C913        H918   1.084       .  S
C914       C1136   1.401       .  A
C914       C1037   1.488       .  S
C915       C1135   1.401   1_554  A
C915        C916   1.418       .  A
C915        H919   1.074       .  S
C916        C917   1.421       .  A
C917       C1133   1.406   1_554  A
C917        H920   1.078       .  S
C921        C922   1.406       .  A
C921        C926   1.397       .  A
C921       C1017   1.483       .  S
C922        C923   1.420       .  A
C922        H927   1.077       .  S
C923        C924   1.421       .  A
C923        C932   1.519       .  S
C924        C925   1.398       .  A
C924        H928   1.074       .  S
C925        C926   1.397       .  A
C925       C1007   1.487       .  S
C926        H929   1.085       .  S
C930       C1152   1.406       .  A
C930        C935   1.398       .  A
C930        C997   1.484       .  S
C931       C1151   1.406   1_554  A
C931        C932   1.421       .  A
C931        H936   1.078       .  S
C932        C933   1.419       .  A
C933       C1155   1.399   1_554  A
C933        H937   1.070       .  S
C934       C1154   1.399       .  A
C934        C935   1.401       .  A
C934        C990   1.495       .  S
C935        H938   1.084       .  S
O939       Mn965   2.082       .  S
O939       C1408   1.269   1_545  A
C940       C1080   1.485       .  S
C940        O973   1.272       .  A
C940        O970   1.274       .  A
O941       Mn948   2.174       .  S
O941       Mn959   2.107       .  S
O941       Mn963   2.165       .  S
O941      Mn1407   2.134       .  S
O942       Mn976   2.118       .  S
O942        C952   1.275       .  A
O943       Mn959   2.125       .  S
O943        C966   1.278       .  A
O944       Mn963   2.119       .  S
O944        C971   1.252       .  A
O945       Mn965   1.968       .  S
O945        C961   1.219       .  S
C946       C1057   1.482       .  S
C946        O949   1.252       .  A
C946        O972   1.221       .  S
O947       Mn948   2.176       .  S
O947       Mn981   2.119       .  S
O947       Mn963   2.173       .  S
Mn948       O953   2.128       .  S
Mn948      O1422   2.117       .  S
O950       Mn957   2.081       .  S
O950        C952   1.267       .  A
C951       C1040   1.481       .  S
C951        O977   1.256       .  A
C951        O964   1.217       .  S
C952       C1097   1.491       .  S
O953        C978   1.255       .  A
O954       Mn957   2.138       .  S
O954       Mn976   2.114       .  S
O955       Mn959   1.972       .  S
O955       Mn981   1.947       .  S
O955        C978   1.212       .  S
C956       C1020   1.491       .  S
C956        O958   1.270       .  A
Mn957       O970   2.104       .  S
Mn957      O1414   1.966   1_545  S
Mn957      O1406   1.947   1_545  S
O958       Mn981   2.085       .  S
Mn959       O975   2.085       .  S
Mn959       O969   1.951       .  S
O960       Mn965   2.110       .  S
O960       C1404   1.275   1_545  A
C961       C1010   1.481       .  S
C961        O979   1.255       .  A
C962       C1030   1.497       .  S
C962       O1402   1.275       .  A
C962        O975   1.268       .  A
Mn963      O1421   2.110       .  S
O964      Mn1399   1.947       .  S
O964       Mn967   1.958       .  S
Mn965      O1383   2.134   1_545  S
Mn965       O983   1.939       .  S
C966       C1050   1.485       .  S
C966       O1381   1.269       .  A
Mn967       O974   2.096       .  S
Mn967       O982   2.104       .  S
Mn967       O972   1.968       .  S
C968       C1000   1.498       .  S
C968        O984   1.273       .  A
O969       Mn981   1.950       .  S
O969        C971   1.211       .  S
C971       C1087   1.477       .  S
O972      Mn1399   1.966       .  S
O973       Mn976   2.101       .  S
C978       C1067   1.488       .  S
O979      Mn1405   2.110   1_545  S
O980      Mn1390   2.117   1_545  S
O980        C985   1.255       .  A
Mn981       O984   2.111       .  S
O983        C985   1.214       .  S
C985        C987   1.484       .  S
C986        C987   1.405       .  A
C986        C991   1.406       .  A
C986        H993   1.083       .  S
C988        C989   1.391       .  A
C988       Br995   1.919       .  S
C989        H994   1.083       .  S
C990        C991   1.419       .  A
C991       Br992   1.922       .  S
C996       C1001   1.398       .  A
C996       H1003   1.084       .  S
C997        C998   1.406       .  A
C998        C999   1.406       .  A
C998      Br1005   1.918       .  S
C999       C1000   1.412       .  A
C999       H1004   1.081       .  S
C1001     Br1002   1.921       .  S
C1006      C1011   1.391       .  A
C1006      H1013   1.084       .  S
C1007      C1008   1.414       .  A
C1008      C1009   1.405       .  A
C1008     Br1015   1.920       .  S
C1009      C1010   1.407       .  A
C1009      H1014   1.083       .  S
C1011     Br1012   1.913       .  S
C1016      C1021   1.397       .  A
C1016      H1023   1.084       .  S
C1017      C1018   1.406       .  A
C1018      C1019   1.403       .  A
C1018     Br1025   1.919       .  S
C1019      C1020   1.413       .  A
C1019      H1024   1.082       .  S
C1021     Br1022   1.922       .  S
C1026      C1027   1.397       .  A
C1026      C1031   1.398       .  A
C1026      H1254   1.084       .  S
C1027      C1028   1.405       .  A
C1028      C1029   1.403       .  A
C1028     Br1477   1.918       .  S
C1029      C1030   1.411       .  A
C1029      H1476   1.083       .  S
C1030      C1031   1.423       .  A
C1031     Br1032   1.922       .  S
H1033      C1247   1.084       .  S
H1034      C1471   1.083       .  S
Br1035     C1470   1.918       .  S
C1036      C1037   1.407       .  A
C1036      C1041   1.401       .  A
C1036      H1706   1.083       .  S
C1037      C1038   1.412       .  A
C1038      C1039   1.395       .  A
C1038     Br1045   1.924       .  S
C1039      C1040   1.405       .  A
C1039      H1044   1.083       .  S
C1040      C1041   1.409       .  A
C1041     Br1484   1.912       .  S
Br1042     C1483   1.912   1_545  S
H1043      C1699   1.083   1_544  S
C1046      C1047   1.403       .  A
C1046      C1051   1.400       .  A
C1046      H1053   1.083       .  S
C1047      C1048   1.410       .  A
C1048      C1049   1.400       .  A
C1048     Br1497   1.920       .  S
C1049      C1050   1.407       .  A
C1049      H1496   1.083       .  S
C1050      C1051   1.409       .  A
C1051     Br1052   1.906       .  S
H1054      C1491   1.083       .  S
Br1055     C1490   1.920       .  S
C1056      C1057   1.405       .  A
C1056      C1061   1.399       .  A
C1056      H1063   1.083       .  S
C1057      C1058   1.412       .  A
C1058      C1059   1.401       .  A
C1058     Br1507   1.920       .  S
C1059      C1060   1.406       .  A
C1059      H1506   1.084       .  S
C1060      C1061   1.411       .  A
C1061     Br1062   1.921       .  S
H1064      C1501   1.084   1_545  S
Br1065     C1500   1.920   1_545  S
C1066      C1067   1.406       .  A
C1066      C1071   1.409       .  A
C1066      H1073   1.083       .  S
C1067      C1068   1.417       .  A
C1068      C1069   1.388       .  A
C1068     Br1075   1.928       .  S
C1069      C1070   1.404       .  A
C1069      H1074   1.082       .  S
C1070      C1071   1.423       .  A
C1071     Br1293   1.921       .  S
Br1072     C1292   1.921   1_554  S
C1076      C1077   1.396       .  A
C1076      C1081   1.398       .  A
C1076      H1083   1.084       .  S
C1077      C1078   1.411       .  A
C1078      C1079   1.400       .  A
C1078     Br1085   1.921       .  S
C1079      C1080   1.405       .  A
C1079      H1084   1.084       .  S
C1080      C1081   1.414       .  A
C1081     Br1082   1.903       .  S
C1086      C1087   1.406       .  A
C1086      C1091   1.391       .  A
C1086      H1093   1.084       .  S
C1087      C1088   1.408       .  A
C1088      C1089   1.402       .  A
C1088     Br1095   1.919       .  S
C1089      C1090   1.410       .  A
C1089      H1094   1.083       .  S
C1090      C1091   1.410       .  A
C1091     Br1092   1.923       .  S
C1096      C1097   1.406       .  A
C1096      C1101   1.402       .  A
C1096      H1103   1.083       .  S
C1097      C1098   1.419       .  A
C1098      C1099   1.401       .  A
C1098     Br1105   1.922       .  S
C1099      C1100   1.401       .  A
C1099      H1104   1.084       .  S
C1100      C1101   1.411       .  A
C1101     Br1102   1.919       .  S
C1106      C1107   1.398       .  A
C1106      C1111   1.405       .  A
C1106      C1321   1.485       .  S
C1107      C1108   1.401       .  A
C1107      H1112   1.083       .  S
C1108      C1109   1.399       .  A
C1108      C1311   1.486       .  S
C1109      C1110   1.413       .  A
C1109      H1113   1.078       .  S
C1110      C1111   1.420       .  A
C1110      C1117   1.511       .  S
C1111      H1114   1.078       .  S
C1115      C1120   1.393       .  A
C1115      C1298   1.478       .  S
C1116      C1117   1.414       .  A
C1116      H1121   1.077       .  S
C1117      C1118   1.422       .  A
C1118      H1122   1.077       .  S
C1119      C1120   1.406       .  A
C1119      C1291   1.505       .  S
C1120      H1123   1.083       .  S
C1124      C1125   1.406       .  A
C1124      C1129   1.399       .  A
C1124      C1268   1.484       .  S
C1125      C1126   1.418       .  A
C1125      H1130   1.078       .  S
C1126      C1127   1.420       .  A
C1126      C1137   1.520       .  S
C1127      C1128   1.402       .  A
C1127      H1131   1.075       .  S
C1128      C1129   1.397       .  A
C1128      C1281   1.489       .  S
C1129      H1132   1.083       .  S
C1133      C1134   1.395       .  A
C1133      C1248   1.478       .  S
C1134      C1135   1.397       .  A
C1134      H1139   1.084       .  S
C1135      C1258   1.488       .  S
C1136      C1137   1.418       .  A
C1136      H1140   1.074       .  S
C1137      C1138   1.421       .  A
C1138      H1141   1.078       .  S
C1142      C1143   1.406       .  A
C1142      C1147   1.397       .  A
C1142      C1238   1.483       .  S
C1143      C1144   1.420       .  A
C1143      H1148   1.077       .  S
C1144      C1145   1.421       .  A
C1144      C1153   1.519       .  S
C1145      C1146   1.398       .  A
C1145      H1149   1.074       .  S
C1146      C1147   1.397       .  A
C1146      C1228   1.487       .  S
C1147      H1150   1.085       .  S
C1151      C1156   1.398       .  A
C1151      C1218   1.484       .  S
C1152      C1153   1.421       .  A
C1152      H1157   1.078       .  S
C1153      C1154   1.419       .  A
C1154      H1158   1.070       .  S
C1155      C1156   1.401       .  A
C1155      C1211   1.495       .  S
C1156      H1159   1.084       .  S
O1160     Mn1186   2.082       .  S
O1160      C1629   1.269   1_545  A
C1161      C1301   1.485       .  S
C1161      O1194   1.272       .  A
C1161      O1191   1.274       .  A
O1162     Mn1169   2.174       .  S
O1162     Mn1180   2.107       .  S
O1162     Mn1184   2.165       .  S
O1162     Mn1628   2.134       .  S
O1163     Mn1197   2.118       .  S
O1163      C1173   1.275       .  A
O1164     Mn1180   2.125       .  S
O1164      C1187   1.278       .  A
O1165     Mn1184   2.119       .  S
O1165      C1192   1.252       .  A
O1166     Mn1186   1.968       .  S
O1166      C1182   1.219       .  S
C1167      C1278   1.482       .  S
C1167      O1170   1.252       .  A
C1167      O1193   1.221       .  S
O1168     Mn1169   2.176       .  S
O1168     Mn1202   2.119       .  S
O1168     Mn1184   2.173       .  S
Mn1169     O1174   2.128       .  S
Mn1169     O1643   2.117       .  S
O1171     Mn1178   2.081       .  S
O1171      C1173   1.267       .  A
C1172      C1261   1.481       .  S
C1172      O1198   1.256       .  A
C1172      O1185   1.217       .  S
C1173      C1318   1.491       .  S
O1174      C1199   1.255       .  A
O1175     Mn1178   2.138       .  S
O1175     Mn1197   2.114       .  S
O1176     Mn1180   1.972       .  S
O1176     Mn1202   1.947       .  S
O1176      C1199   1.212       .  S
C1177      C1241   1.491       .  S
C1177      O1179   1.270       .  A
Mn1178     O1191   2.104       .  S
Mn1178     O1635   1.966   1_545  S
Mn1178     O1627   1.947   1_545  S
O1179     Mn1202   2.085       .  S
Mn1180     O1196   2.085       .  S
Mn1180     O1190   1.951       .  S
O1181     Mn1186   2.110       .  S
O1181      C1625   1.275   1_545  A
C1182      C1231   1.481       .  S
C1182      O1200   1.255       .  A
C1183      C1251   1.497       .  S
C1183      O1623   1.275       .  A
C1183      O1196   1.268       .  A
Mn1184     O1642   2.110       .  S
O1185     Mn1620   1.947       .  S
O1185     Mn1188   1.958       .  S
Mn1186     O1604   2.134   1_545  S
Mn1186     O1204   1.939       .  S
C1187      C1271   1.485       .  S
C1187      O1602   1.269       .  A
Mn1188     O1195   2.096       .  S
Mn1188     O1203   2.104       .  S
Mn1188     O1193   1.968       .  S
C1189      C1221   1.498       .  S
C1189      O1205   1.273       .  A
O1190     Mn1202   1.950       .  S
O1190      C1192   1.211       .  S
C1192      C1308   1.477       .  S
O1193     Mn1620   1.966       .  S
O1194     Mn1197   2.101       .  S
C1199      C1288   1.488       .  S
O1200     Mn1626   2.110   1_545  S
O1201     Mn1611   2.117   1_545  S
O1201      C1206   1.255       .  A
Mn1202     O1205   2.111       .  S
O1204      C1206   1.214       .  S
C1206      C1208   1.484       .  S
C1207      C1208   1.405       .  A
C1207      C1212   1.406       .  A
C1207      H1214   1.083       .  S
C1209      C1210   1.391       .  A
C1209     Br1216   1.919       .  S
C1210      H1215   1.083       .  S
C1211      C1212   1.419       .  A
C1212     Br1213   1.922   1_556  S
C1217      C1222   1.398       .  A
C1217      H1224   1.084       .  S
C1218      C1219   1.406       .  A
C1219      C1220   1.406       .  A
C1219     Br1226   1.918       .  S
C1220      C1221   1.412       .  A
C1220      H1225   1.081       .  S
C1222     Br1223   1.921       .  S
C1227      C1232   1.391       .  A
C1227      H1234   1.084       .  S
C1228      C1229   1.414       .  A
C1229      C1230   1.405       .  A
C1229     Br1236   1.920       .  S
C1230      C1231   1.407       .  A
C1230      H1235   1.083       .  S
C1232     Br1233   1.913       .  S
C1237      C1242   1.397       .  A
C1237      H1244   1.084       .  S
C1238      C1239   1.406       .  A
C1239      C1240   1.403       .  A
C1239     Br1246   1.919       .  S
C1240      C1241   1.413       .  A
C1240      H1245   1.082       .  S
C1242     Br1243   1.922       .  S
C1247      C1248   1.397       .  A
C1247      C1252   1.398       .  A
C1248      C1249   1.405       .  A
C1249      C1250   1.403       .  A
C1249     Br1698   1.918       .  S
C1250      C1251   1.411       .  A
C1250      H1697   1.083       .  S
C1251      C1252   1.423       .  A
C1252     Br1253   1.922       .  S
H1255      C1692   1.083       .  S
Br1256     C1691   1.918       .  S
C1257      C1258   1.407       .  A
C1257      C1262   1.401       .  A
C1257      H1485   1.083   1_556  S
C1258      C1259   1.412       .  A
C1259      C1260   1.395       .  A
C1259     Br1266   1.924       .  S
C1260      C1261   1.405       .  A
C1260      H1265   1.083       .  S
C1261      C1262   1.409       .  A
C1262     Br1705   1.912       .  S
Br1263     C1704   1.912   1_545  S
H1264      C1478   1.083   1_545  S
C1267      C1268   1.403       .  A
C1267      C1272   1.400       .  A
C1267      H1274   1.083       .  S
C1268      C1269   1.410       .  A
C1269      C1270   1.400       .  A
C1269     Br1718   1.920       .  S
C1270      C1271   1.407       .  A
C1270      H1717   1.083       .  S
C1271      C1272   1.409       .  A
C1272     Br1273   1.906       .  S
H1275      C1712   1.083       .  S
Br1276     C1711   1.920       .  S
C1277      C1278   1.405       .  A
C1277      C1282   1.399       .  A
C1277      H1284   1.083       .  S
C1278      C1279   1.412       .  A
C1279      C1280   1.401       .  A
C1279     Br1728   1.920       .  S
C1280      C1281   1.406       .  A
C1280      H1727   1.084       .  S
C1281      C1282   1.411       .  A
C1282     Br1283   1.921       .  S
H1285      C1722   1.084   1_545  S
Br1286     C1721   1.920   1_545  S
C1287      C1288   1.406       .  A
C1287      C1292   1.409       .  A
C1287      H1294   1.083       .  S
C1288      C1289   1.417       .  A
C1289      C1290   1.388       .  A
C1289     Br1296   1.928       .  S
C1290      C1291   1.404       .  A
C1290      H1295   1.082       .  S
C1291      C1292   1.423       .  A
C1297      C1298   1.396       .  A
C1297      C1302   1.398       .  A
C1297      H1304   1.084       .  S
C1298      C1299   1.411       .  A
C1299      C1300   1.400       .  A
C1299     Br1306   1.921       .  S
C1300      C1301   1.405       .  A
C1300      H1305   1.084       .  S
C1301      C1302   1.414       .  A
C1302     Br1303   1.903       .  S
C1307      C1308   1.406       .  A
C1307      C1312   1.391       .  A
C1307      H1314   1.084       .  S
C1308      C1309   1.408       .  A
C1309      C1310   1.402       .  A
C1309     Br1316   1.919       .  S
C1310      C1311   1.410       .  A
C1310      H1315   1.083       .  S
C1311      C1312   1.410       .  A
C1312     Br1313   1.923       .  S
C1317      C1318   1.406       .  A
C1317      C1322   1.402       .  A
C1317      H1324   1.083       .  S
C1318      C1319   1.419       .  A
C1319      C1320   1.401       .  A
C1319     Br1326   1.922       .  S
C1320      C1321   1.401       .  A
C1320      H1325   1.084       .  S
C1321      C1322   1.411       .  A
C1322     Br1323   1.919       .  S
C1327      C1328   1.398       .  A
C1327      C1332   1.405       .  A
C1327      C1542   1.485       .  S
C1328      C1329   1.401       .  A
C1328      H1333   1.083       .  S
C1329      C1330   1.399       .  A
C1329      C1532   1.486       .  S
C1330      C1331   1.413       .  A
C1330      H1334   1.078       .  S
C1331      C1332   1.420       .  A
C1331      C1338   1.511       .  S
C1332      H1335   1.078       .  S
C1336      C1558   1.398       .  A
C1336      C1341   1.393       .  A
C1336      C1519   1.478       .  S
C1337      C1557   1.398   1_554  A
C1337      C1338   1.414       .  A
C1337      H1342   1.077       .  S
C1338      C1339   1.422       .  A
C1339      C1561   1.407   1_554  A
C1339      H1343   1.077       .  S
C1340      C1560   1.407       .  A
C1340      C1341   1.406       .  A
C1340      C1512   1.505       .  S
C1341      H1344   1.083       .  S
C1345      C1346   1.406       .  A
C1345      C1350   1.399       .  A
C1345      C1489   1.484   1_565  S
C1346      C1347   1.418       .  A
C1346      H1351   1.078   1_565  S
C1347      C1348   1.420       .  A
C1347      C1358   1.520       .  S
C1348      C1349   1.402       .  A
C1348      H1352   1.075       .  S
C1349      C1350   1.397       .  A
C1349      C1502   1.489       .  S
C1350      H1353   1.083       .  S
C1354      C1355   1.395       .  A
C1354      C1580   1.406       .  A
C1354      C1469   1.478       .  S
C1355      C1356   1.397       .  A
C1355      H1360   1.084       .  S
C1356      C1578   1.401       .  A
C1356      C1479   1.488       .  S
C1357      C1577   1.401   1_554  A
C1357      C1358   1.418       .  A
C1357      H1361   1.074       .  S
C1358      C1359   1.421       .  A
C1359      C1575   1.406   1_554  A
C1359      H1362   1.078       .  S
C1363      C1364   1.406       .  A
C1363      C1368   1.397       .  A
C1363      C1459   1.483       .  S
C1364      C1365   1.420       .  A
C1364      H1369   1.077       .  S
C1365      C1366   1.421       .  A
C1365      C1374   1.519       .  S
C1366      C1367   1.398       .  A
C1366      H1370   1.074       .  S
C1367      C1368   1.397       .  A
C1367      C1449   1.487       .  S
C1368      H1371   1.085       .  S
C1372      C1594   1.406       .  A
C1372      C1377   1.398       .  A
C1372      C1439   1.484       .  S
C1373      C1593   1.406   1_554  A
C1373      C1374   1.421       .  A
C1373      H1378   1.078       .  S
C1374      C1375   1.419       .  A
C1375      C1597   1.399   1_554  A
C1375      H1379   1.070       .  S
C1376      C1596   1.399       .  A
C1376      C1377   1.401       .  A
C1376      C1432   1.495       .  S
C1377      H1380   1.084       .  S
O1381     Mn1407   2.082       .  S
C1382      C1522   1.485       .  S
C1382      O1415   1.272       .  A
C1382      O1412   1.274       .  A
O1383     Mn1390   2.174       .  S
O1383     Mn1401   2.107       .  S
O1383     Mn1405   2.165       .  S
O1384     Mn1418   2.118       .  S
O1384      C1394   1.275       .  A
O1385     Mn1401   2.125       .  S
O1385      C1408   1.278       .  A
O1386     Mn1405   2.119       .  S
O1386      C1413   1.252       .  A
O1387     Mn1407   1.968       .  S
O1387      C1403   1.219       .  S
C1388      C1499   1.482       .  S
C1388      O1391   1.252       .  A
C1388      O1414   1.221       .  S
O1389     Mn1390   2.176       .  S
O1389     Mn1423   2.119       .  S
O1389     Mn1405   2.173       .  S
Mn1390     O1395   2.128       .  S
O1392     Mn1399   2.081       .  S
O1392      C1394   1.267       .  A
C1393      C1482   1.481       .  S
C1393      O1419   1.256       .  A
C1393      O1406   1.217       .  S
C1394      C1539   1.491       .  S
O1395      C1420   1.255       .  A
O1396     Mn1399   2.138       .  S
O1396     Mn1418   2.114       .  S
O1397     Mn1401   1.972       .  S
O1397     Mn1423   1.947       .  S
O1397      C1420   1.212       .  S
C1398      C1462   1.491       .  S
C1398      O1400   1.270       .  A
Mn1399     O1412   2.104       .  S
O1400     Mn1423   2.085       .  S
Mn1401     O1417   2.085       .  S
Mn1401     O1411   1.951       .  S
O1402     Mn1407   2.110       .  S
C1403      C1452   1.481       .  S
C1403      O1421   1.255       .  A
C1404      C1472   1.497       .  S
C1404      O1417   1.268       .  A
O1406     Mn1409   1.958       .  S
Mn1407     O1425   1.939       .  S
C1408      C1492   1.485       .  S
Mn1409     O1416   2.096       .  S
Mn1409     O1424   2.104       .  S
Mn1409     O1414   1.968       .  S
C1410      C1442   1.498       .  S
C1410      O1426   1.273       .  A
O1411     Mn1423   1.950       .  S
O1411      C1413   1.211       .  S
C1413      C1529   1.477       .  S
O1415     Mn1418   2.101       .  S
C1420      C1509   1.488       .  S
O1422      C1427   1.255       .  A
Mn1423     O1426   2.111       .  S
O1425      C1427   1.214       .  S
C1427      C1429   1.484       .  S
C1428      C1429   1.405       .  A
C1428      C1433   1.406       .  A
C1428      H1435   1.083       .  S
C1430      C1431   1.391       .  A
C1430     Br1437   1.919       .  S
C1431      H1436   1.083       .  S
C1432      C1433   1.419       .  A
C1433     Br1434   1.922       .  S
C1438      C1443   1.398       .  A
C1438      H1445   1.084       .  S
C1439      C1440   1.406       .  A
C1440      C1441   1.406       .  A
C1440     Br1447   1.918       .  S
C1441      C1442   1.412       .  A
C1441      H1446   1.081       .  S
C1443     Br1444   1.921       .  S
C1448      C1453   1.391       .  A
C1448      H1455   1.084       .  S
C1449      C1450   1.414       .  A
C1450      C1451   1.405       .  A
C1450     Br1457   1.920       .  S
C1451      C1452   1.407       .  A
C1451      H1456   1.083       .  S
C1453     Br1454   1.913       .  S
C1458      C1463   1.397       .  A
C1458      H1465   1.084       .  S
C1459      C1460   1.406       .  A
C1460      C1461   1.403       .  A
C1460     Br1467   1.919       .  S
C1461      C1462   1.413       .  A
C1461      H1466   1.082       .  S
C1463     Br1464   1.922       .  S
C1468      C1469   1.397       .  A
C1468      C1473   1.398       .  A
C1468      H1696   1.084       .  S
C1469      C1470   1.405   1_565  A
C1470      C1471   1.403       .  A
C1471      C1472   1.411   1_545  A
C1472      C1473   1.423       .  A
C1473     Br1474   1.922       .  S
H1475      C1689   1.084       .  S
C1478      C1479   1.407       .  A
C1478      C1483   1.401       .  A
C1479      C1480   1.412       .  A
C1480      C1481   1.395       .  A
C1480     Br1487   1.924       .  S
C1481      C1482   1.405       .  A
C1481      H1486   1.083       .  S
C1482      C1483   1.409       .  A
C1488      C1489   1.403   1_565  A
C1488      C1493   1.400       .  A
C1488      H1495   1.083       .  S
C1489      C1490   1.410       .  A
C1490      C1491   1.400       .  A
C1491      C1492   1.407   1_545  A
C1492      C1493   1.409       .  A
C1493     Br1494   1.906       .  S
C1498      C1499   1.405       .  A
C1498      C1503   1.399       .  A
C1498      H1505   1.083       .  S
C1499      C1500   1.412       .  A
C1500      C1501   1.401       .  A
C1501      C1502   1.406       .  A
C1502      C1503   1.411       .  A
C1503     Br1504   1.921       .  S
C1508      C1509   1.406       .  A
C1508      C1513   1.409       .  A
C1508      H1515   1.083       .  S
C1509      C1510   1.417       .  A
C1510      C1511   1.388       .  A
C1510     Br1517   1.928       .  S
C1511      C1512   1.404       .  A
C1511      H1516   1.082       .  S
C1512      C1513   1.423       .  A
C1513     Br1735   1.921       .  S
Br1514     C1734   1.921   1_554  S
C1518      C1519   1.396       .  A
C1518      C1523   1.398       .  A
C1518      H1525   1.084       .  S
C1519      C1520   1.411       .  A
C1520      C1521   1.400       .  A
C1520     Br1527   1.921       .  S
C1521      C1522   1.405       .  A
C1521      H1526   1.084       .  S
C1522      C1523   1.414       .  A
C1523     Br1524   1.903       .  S
C1528      C1529   1.406       .  A
C1528      C1533   1.391       .  A
C1528      H1535   1.084       .  S
C1529      C1530   1.408       .  A
C1530      C1531   1.402       .  A
C1530     Br1537   1.919       .  S
C1531      C1532   1.410       .  A
C1531      H1536   1.083       .  S
C1532      C1533   1.410       .  A
C1533     Br1534   1.923       .  S
C1538      C1539   1.406       .  A
C1538      C1543   1.402       .  A
C1538      H1545   1.083       .  S
C1539      C1540   1.419       .  A
C1540      C1541   1.401       .  A
C1540     Br1547   1.922       .  S
C1541      C1542   1.401       .  A
C1541      H1546   1.084       .  S
C1542      C1543   1.411       .  A
C1543     Br1544   1.919       .  S
C1548      C1549   1.398       .  A
C1548      C1553   1.405       .  A
C1548      C1763   1.485       .  S
C1549      C1550   1.401       .  A
C1549      H1554   1.083       .  S
C1550      C1551   1.399       .  A
C1550      C1753   1.486       .  S
C1551      C1552   1.413       .  A
C1551      H1555   1.078       .  S
C1552      C1553   1.420       .  A
C1552      C1559   1.511       .  S
C1553      H1556   1.078       .  S
C1557      C1562   1.393       .  A
C1557      C1740   1.478       .  S
C1558      C1559   1.414       .  A
C1558      H1563   1.077       .  S
C1559      C1560   1.422       .  A
C1560      H1564   1.077       .  S
C1561      C1562   1.406       .  A
C1561      C1733   1.505       .  S
C1562      H1565   1.083       .  S
C1566      C1567   1.406       .  A
C1566      C1571   1.399       .  A
C1566      C1710   1.484   1_565  S
C1567      C1568   1.418       .  A
C1567      H1572   1.078   1_565  S
C1568      C1569   1.420       .  A
C1568      C1579   1.520       .  S
C1569      C1570   1.402       .  A
C1569      H1573   1.075       .  S
C1570      C1571   1.397       .  A
C1570      C1723   1.489       .  S
C1571      H1574   1.083       .  S
C1575      C1576   1.395       .  A
C1575      C1690   1.478       .  S
C1576      C1577   1.397       .  A
C1576      H1581   1.084       .  S
C1577      C1700   1.488       .  S
C1578      C1579   1.418       .  A
C1578      H1582   1.074       .  S
C1579      C1580   1.421       .  A
C1580      H1583   1.078       .  S
C1584      C1585   1.406       .  A
C1584      C1589   1.397       .  A
C1584      C1680   1.483       .  S
C1585      C1586   1.420       .  A
C1585      H1590   1.077       .  S
C1586      C1587   1.421       .  A
C1586      C1595   1.519       .  S
C1587      C1588   1.398       .  A
C1587      H1591   1.074       .  S
C1588      C1589   1.397       .  A
C1588      C1670   1.487       .  S
C1589      H1592   1.085       .  S
C1593      C1598   1.398       .  A
C1593      C1660   1.484       .  S
C1594      C1595   1.421       .  A
C1594      H1599   1.078       .  S
C1595      C1596   1.419       .  A
C1596      H1600   1.070       .  S
C1597      C1598   1.401       .  A
C1597      C1653   1.495       .  S
C1598      H1601   1.084       .  S
O1602     Mn1628   2.082       .  S
C1603      C1743   1.485       .  S
C1603      O1636   1.272       .  A
C1603      O1633   1.274       .  A
O1604     Mn1611   2.174       .  S
O1604     Mn1622   2.107       .  S
O1604     Mn1626   2.165       .  S
O1605     Mn1639   2.118       .  S
O1605      C1615   1.275       .  A
O1606     Mn1622   2.125       .  S
O1606      C1629   1.278       .  A
O1607     Mn1626   2.119       .  S
O1607      C1634   1.252       .  A
O1608     Mn1628   1.968       .  S
O1608      C1624   1.219       .  S
C1609      C1720   1.482       .  S
C1609      O1612   1.252       .  A
C1609      O1635   1.221       .  S
O1610     Mn1611   2.176       .  S
O1610     Mn1644   2.119       .  S
O1610     Mn1626   2.173       .  S
Mn1611     O1616   2.128       .  S
O1613     Mn1620   2.081       .  S
O1613      C1615   1.267       .  A
C1614      C1703   1.481       .  S
C1614      O1640   1.256       .  A
C1614      O1627   1.217       .  S
C1615      C1760   1.491       .  S
O1616      C1641   1.255       .  A
O1617     Mn1620   2.138       .  S
O1617     Mn1639   2.114       .  S
O1618     Mn1622   1.972       .  S
O1618     Mn1644   1.947       .  S
O1618      C1641   1.212       .  S
C1619      C1683   1.491       .  S
C1619      O1621   1.270       .  A
Mn1620     O1633   2.104       .  S
O1621     Mn1644   2.085       .  S
Mn1622     O1638   2.085       .  S
Mn1622     O1632   1.951       .  S
O1623     Mn1628   2.110       .  S
C1624      C1673   1.481       .  S
C1624      O1642   1.255       .  A
C1625      C1693   1.497       .  S
C1625      O1638   1.268       .  A
O1627     Mn1630   1.958       .  S
Mn1628     O1646   1.939       .  S
C1629      C1713   1.485       .  S
Mn1630     O1637   2.096       .  S
Mn1630     O1645   2.104       .  S
Mn1630     O1635   1.968       .  S
C1631      C1663   1.498       .  S
C1631      O1647   1.273       .  A
O1632     Mn1644   1.950       .  S
O1632      C1634   1.211       .  S
C1634      C1750   1.477       .  S
O1636     Mn1639   2.101       .  S
C1641      C1730   1.488       .  S
O1643      C1648   1.255       .  A
Mn1644     O1647   2.111       .  S
O1646      C1648   1.214       .  S
C1648      C1650   1.484       .  S
C1649      C1650   1.405       .  A
C1649      C1654   1.406       .  A
C1649      H1656   1.083       .  S
C1651      C1652   1.391       .  A
C1651     Br1658   1.919       .  S
C1652      H1657   1.083       .  S
C1653      C1654   1.419       .  A
C1654     Br1655   1.922   1_556  S
C1659      C1664   1.398       .  A
C1659      H1666   1.084       .  S
C1660      C1661   1.406       .  A
C1661      C1662   1.406       .  A
C1661     Br1668   1.918       .  S
C1662      C1663   1.412       .  A
C1662      H1667   1.081       .  S
C1664     Br1665   1.921       .  S
C1669      C1674   1.391       .  A
C1669      H1676   1.084       .  S
C1670      C1671   1.414       .  A
C1671      C1672   1.405       .  A
C1671     Br1678   1.920       .  S
C1672      C1673   1.407       .  A
C1672      H1677   1.083       .  S
C1674     Br1675   1.913       .  S
C1679      C1684   1.397       .  A
C1679      H1686   1.084       .  S
C1680      C1681   1.406       .  A
C1681      C1682   1.403       .  A
C1681     Br1688   1.919       .  S
C1682      C1683   1.413       .  A
C1682      H1687   1.082       .  S
C1684     Br1685   1.922       .  S
C1689      C1690   1.397       .  A
C1689      C1694   1.398       .  A
C1690      C1691   1.405   1_565  A
C1691      C1692   1.403       .  A
C1692      C1693   1.411   1_545  A
C1693      C1694   1.423       .  A
C1694     Br1695   1.922       .  S
C1699      C1700   1.407       .  A
C1699      C1704   1.401       .  A
C1700      C1701   1.412       .  A
C1701      C1702   1.395       .  A
C1701     Br1708   1.924       .  S
C1702      C1703   1.405       .  A
C1702      H1707   1.083       .  S
C1703      C1704   1.409       .  A
C1709      C1710   1.403   1_565  A
C1709      C1714   1.400       .  A
C1709      H1716   1.083       .  S
C1710      C1711   1.410       .  A
C1711      C1712   1.400       .  A
C1712      C1713   1.407   1_545  A
C1713      C1714   1.409       .  A
C1714     Br1715   1.906       .  S
C1719      C1720   1.405       .  A
C1719      C1724   1.399       .  A
C1719      H1726   1.083       .  S
C1720      C1721   1.412       .  A
C1721      C1722   1.401       .  A
C1722      C1723   1.406       .  A
C1723      C1724   1.411       .  A
C1724     Br1725   1.921       .  S
C1729      C1730   1.406       .  A
C1729      C1734   1.409       .  A
C1729      H1736   1.083       .  S
C1730      C1731   1.417       .  A
C1731      C1732   1.388       .  A
C1731     Br1738   1.928       .  S
C1732      C1733   1.404       .  A
C1732      H1737   1.082       .  S
C1733      C1734   1.423       .  A
C1739      C1740   1.396       .  A
C1739      C1744   1.398       .  A
C1739      H1746   1.084       .  S
C1740      C1741   1.411       .  A
C1741      C1742   1.400       .  A
C1741     Br1748   1.921       .  S
C1742      C1743   1.405       .  A
C1742      H1747   1.084       .  S
C1743      C1744   1.414       .  A
C1744     Br1745   1.903       .  S
C1749      C1750   1.406       .  A
C1749      C1754   1.391       .  A
C1749      H1756   1.084       .  S
C1750      C1751   1.408       .  A
C1751      C1752   1.402       .  A
C1751     Br1758   1.919       .  S
C1752      C1753   1.410       .  A
C1752      H1757   1.083       .  S
C1753      C1754   1.410       .  A
C1754     Br1755   1.923       .  S
C1759      C1760   1.406       .  A
C1759      C1764   1.402       .  A
C1759      H1766   1.083       .  S
C1760      C1761   1.419       .  A
C1761      C1762   1.401       .  A
C1761     Br1768   1.922       .  S
C1762      C1763   1.401       .  A
C1762      H1767   1.084       .  S
C1763      C1764   1.411       .  A
C1764     Br1765   1.919       .  S
