geometry optimzed in LAMMPS
_audit_creation_date              2020-11-30 
_audit_creation_method            'lammps2cif' 
_symmetry_space_group_name_H-M    'P1' 
_symmetry_Int_Tables_number       1 
_symmetry_cell_setting            triclinic 
loop_ 
_symmetry_equiv_pos_as_xyz 
  x,y,z 
_cell_length_a                    43.57257021 
_cell_length_b                    43.578705205887466 
_cell_length_c                    87.03513959005369 
_cell_angle_alpha                 89.97399326770648 
_cell_angle_beta                  89.9724814927321 
_cell_angle_gamma                 89.98703386110338 
loop_ 
_atom_site_label 
_atom_site_type_symbol 
_atom_site_fract_x 
_atom_site_fract_y 
_atom_site_fract_z 
_atom_site_charge 
O1          O  0.01054614  0.49404753  0.70873831    -0.71700
O2          O  0.00294699  0.00267218  0.66547583    -0.71900
O3          O  0.00775388  0.04202421  0.68924257    -0.71700
O4          O  0.00571796  0.45524604  0.68503292    -0.71800
O5          O  0.45647368  0.45572398  0.68875881    -0.71700
O6          O  0.45801888  0.04287429  0.68999597    -0.71700
O7          O  0.45340373  0.50058755  0.66751034    -0.71700
O8          O  0.46107626  0.99803343  0.71108849    -0.71900
V9          V  0.00578972  0.99858286  0.68716153     1.35200
V10         V  0.45816174  0.99931658  0.68928445     1.35200
C11         C  0.48712352  0.99484349  0.71730550     0.77600
C12         C  0.47695285  0.00216438  0.65900690     0.77600
C13         C  0.98317405  0.05739208  0.69013263     0.77500
C14         C  0.98085238  0.44058989  0.68650060     0.77500
O15         O  0.46148151  0.24960289  0.71090588    -0.71700
O16         O  0.45217907  0.24836556  0.66730740    -0.71900
O17         O  0.45724719  0.20548233  0.68953071    -0.71700
O18         O  0.45603466  0.29241914  0.68892414    -0.71800
O19         O  0.00505610  0.29301179  0.68453920    -0.71700
O20         O  0.00696591  0.20595175  0.68865348    -0.71700
O21         O  0.00163434  0.24558449  0.66499700    -0.71700
O22         O  0.01083063  0.25401016  0.70809220    -0.71900
V23         V  0.45765002  0.24893595  0.68910427     1.35200
V24         V  0.00519069  0.24953340  0.68660214     1.35200
C25         C  0.98776834  0.25300544  0.71686604     0.77600
C26         C  0.97555537  0.24676524  0.65866676     0.77600
C27         C  0.48222877  0.19075944  0.68959011     0.77500
C28         C  0.48024760  0.30763232  0.68651779     0.77500
O29         O  0.29813590  0.00306180  0.66753645    -0.71700
O30         O  0.29186417  0.49698483  0.71113886    -0.71900
O31         O  0.29503565  0.45691053  0.68797022    -0.71700
O32         O  0.29513392  0.04381232  0.69075838    -0.71800
O33         O  0.24563610  0.04415051  0.68819764    -0.71700
O34         O  0.24530444  0.45707613  0.68706983    -0.71700
O35         O  0.24222444  0.99932689  0.70938159    -0.71700
O36         O  0.24852305  0.50171411  0.66588327    -0.71900
V37         V  0.29410628  0.50030329  0.68932668     1.35200
V38         V  0.24639558  0.50061955  0.68766325     1.35200
C39         C  0.27429281  0.50274669  0.65921162     0.77600
C40         C  0.26588968  0.49661544  0.71766807     0.77600
C41         C  0.27016255  0.44207063  0.68730267     0.77500
C42         C  0.27044107  0.05892704  0.68969485     0.77500
O43         O  0.24057222  0.25344657  0.70932038    -0.71700
O44         O  0.24552920  0.24814783  0.66581046    -0.71900
O45         O  0.24315846  0.20706444  0.68886873    -0.71700
O46         O  0.24318214  0.29406283  0.68632079    -0.71800
O47         O  0.29273698  0.29415363  0.68858701    -0.71700
O48         O  0.29290459  0.20712228  0.68943432    -0.71700
O49         O  0.29517685  0.24983014  0.66712852    -0.71700
O50         O  0.29026091  0.25150285  0.71087881    -0.71900
V51         V  0.24407896  0.25060199  0.68760946     1.35200
V52         V  0.29182800  0.25063274  0.68897481     1.35200
C53         C  0.26449243  0.25346542  0.71753992     0.77600
C54         C  0.27113300  0.24867292  0.65896293     0.77600
C55         C  0.26805501  0.19214762  0.68941000     0.77500
C56         C  0.26795734  0.30903748  0.68724583     0.77500
O57         O  0.49870333  0.00468330  0.79152778    -0.71700
O58         O  0.00249376  0.99700779  0.83488567    -0.71900
O59         O  0.04445752  0.00085319  0.81232864    -0.71700
O60         O  0.45720075  0.00040597  0.81397157    -0.71800
O61         O  0.45750560  0.45106674  0.81074528    -0.71700
O62         O  0.04437086  0.45114489  0.81119775    -0.71700
O63         O  0.50053786  0.44747106  0.83282926    -0.71700
O64         O  0.00138977  0.45510259  0.78922256    -0.71900
V65         V  0.00078814  0.99979505  0.81314764     1.35200
V66         V  0.00095873  0.45214741  0.81105397     1.35200
C67         C  0.99932876  0.48126232  0.78299454     0.77600
C68         C  0.00171834  0.47102385  0.84133467     0.77600
C69         C  0.05936043  0.97593543  0.81164615     0.77500
C70         C  0.44241853  0.97564424  0.81228991     0.77500
O71         O  0.50291581  0.29481001  0.78857402    -0.71700
O72         O  0.00156292  0.30271777  0.83229818    -0.71900
O73         O  0.04566914  0.29853258  0.81073171    -0.71700
O74         O  0.45883124  0.29965151  0.81011020    -0.71800
O75         O  0.45811036  0.25041226  0.81371948    -0.71700
O76         O  0.04531533  0.24881192  0.81154851    -0.71700
O77         O  0.50374104  0.25318439  0.83424350    -0.71700
O78         O  0.99912942  0.24535055  0.79105844    -0.71900
V79         V  0.00226854  0.29801305  0.81046146     1.35200
V80         V  0.00165009  0.25039584  0.81260009     1.35200
C81         C  0.00036835  0.26858033  0.78242500     0.77600
C82         C  0.00260013  0.27903698  0.84075605     0.77600
C83         C  0.06044956  0.27361567  0.81102263     0.77500
C84         C  0.44355167  0.27534990  0.81207527     0.77500
O85         O  0.24955844  0.44235388  0.83268372    -0.71700
O86         O  0.25308184  0.45129667  0.78911661    -0.71900
O87         O  0.29466182  0.44677411  0.81157636    -0.71700
O88         O  0.20742278  0.44694050  0.81009364    -0.71800
O89         O  0.20747484  0.99613184  0.81384812    -0.71700
O90         O  0.29435390  0.99648232  0.81281320    -0.71700
O91         O  0.24986270  0.00079820  0.79169742    -0.71700
O92         O  0.25203268  0.99183941  0.83502527    -0.71900
V93         V  0.25108569  0.44773001  0.81092153     1.35200
V94         V  0.25090670  0.99531902  0.81331644     1.35200
C95         C  0.25092866  0.96569485  0.84131968     0.77600
C96         C  0.25212533  0.97766487  0.78303785     0.77600
C97         C  0.30943277  0.47173870  0.81207443     0.77500
C98         C  0.19250036  0.47162004  0.81186974     0.77500
O99         O  0.25024780  0.25446133  0.83552967    -0.71700
O100        O  0.25543489  0.24463575  0.79225642    -0.71900
O101        O  0.29587353  0.25046475  0.81504561    -0.71700
O102        O  0.20907758  0.24861580  0.81268726    -0.71800
O103        O  0.20825604  0.29829870  0.81136575    -0.71700
O104        O  0.29547207  0.29952076  0.81086152    -0.71700
O105        O  0.25138554  0.29400672  0.78938778    -0.71700
O106        O  0.25243206  0.30389077  0.83292611    -0.71900
V107        V  0.25255982  0.25051531  0.81384349     1.35200
V108        V  0.25185644  0.29803210  0.81119032     1.35200
C109        C  0.25142363  0.28073021  0.84170129     0.77600
C110        C  0.25417144  0.26765012  0.78344453     0.77600
C111        C  0.31059377  0.27508274  0.81297751     0.77500
C112        C  0.19371635  0.27316588  0.81179716     0.77500
O113        O  0.45508112  0.00423266  0.33277799    -0.71700
O114        O  0.46204663  0.50089781  0.28921989    -0.71900
O115        O  0.45866364  0.45933623  0.31170346    -0.71700
O116        O  0.45852320  0.04638216  0.31017179    -0.71800
O117        O  0.00797206  0.04660395  0.31300161    -0.71700
O118        O  0.00838858  0.45950852  0.31278865    -0.71700
O119        O  0.01170864  0.00327255  0.29106254    -0.71700
O120        O  0.00465650  0.50274137  0.33467497    -0.71900
V121        V  0.45953448  0.50281325  0.31100383     1.35200
V122        V  0.00722863  0.50306832  0.31285062     1.35200
C123        C  0.97871522  0.50335701  0.34122534     0.77600
C124        C  0.98802437  0.50118726  0.28273014     0.77600
C125        C  0.48357500  0.44449455  0.31230545     0.77500
C126        C  0.48321005  0.06143256  0.31151251     0.77500
O127        O  0.45211264  0.25057841  0.33230361    -0.71700
O128        O  0.46047835  0.25623661  0.28889253    -0.68700
O129        O  0.45644107  0.20964605  0.30930465    -0.71700
O130        O  0.45635425  0.29664435  0.31181015    -0.71800
O131        O  0.00604452  0.29644359  0.31321710    -0.71700
O132        O  0.00577118  0.20940582  0.31261210    -0.71700
O133        O  0.01005571  0.25370534  0.29112228    -0.71700
O134        O  0.00162971  0.25208825  0.33466287    -0.71900
V135        V  0.45730048  0.25319825  0.31062204     1.35200
V136        V  0.00492612  0.25290749  0.31286443     1.35200
C137        C  0.97544025  0.25068567  0.34094896     0.77600
C138        C  0.98665453  0.25624451  0.28261075     0.77600
C139        C  0.48108681  0.19458535  0.31082631     0.77500
C140        C  0.48124085  0.31147244  0.31256680     0.77500
O141        O  0.29762705  0.50145147  0.33282658    -0.71700
O142        O  0.28904747  0.00082261  0.28913882    -0.71900
O143        O  0.29286366  0.04468356  0.31079925    -0.71700
O144        O  0.29413706  0.45764295  0.31123460    -0.71800
O145        O  0.24496666  0.45705295  0.31507395    -0.71700
O146        O  0.24313051  0.04401718  0.31173468    -0.71700
O147        O  0.23962525  0.49677832  0.29174400    -0.71700
O148        O  0.24810403  0.00354933  0.33499486    -0.71900
V149        V  0.29250357  0.00117124  0.31102531     1.35200
V150        V  0.24491326  0.00046552  0.31333248     1.35200
C151        C  0.27411792  0.00240770  0.34139149     0.77600
C152        C  0.26281184  0.99786634  0.28304213     0.77600
C153        C  0.26779643  0.05929889  0.31098689     0.77500
C154        C  0.26987318  0.44242976  0.31356980     0.77500
O155        O  0.24061399  0.25185308  0.29140991    -0.71700
O156        O  0.24776325  0.24989594  0.33493576    -0.71900
O157        O  0.24406392  0.29440723  0.31379904    -0.71700
O158        O  0.24427004  0.20728163  0.31262296    -0.71800
O159        O  0.29372457  0.20764525  0.30975702    -0.71700
O160        O  0.29378539  0.29457451  0.31265652    -0.71700
O161        O  0.29735738  0.24825665  0.33285854    -0.71700
O162        O  0.29025287  0.25434674  0.28943666    -0.71900
V163        V  0.24512362  0.25085076  0.31314295     1.35200
V164        V  0.29281709  0.25114191  0.31119642     1.35200
C165        C  0.26422545  0.25393880  0.28301661     0.77600
C166        C  0.27380597  0.24869230  0.34134456     0.77600
C167        C  0.26891424  0.30940162  0.31368032     0.77500
C168        C  0.26905446  0.19252808  0.31096804     0.77500
O169        O  0.43895922  0.99630217  0.45881103    -0.71700
O170        O  0.44230606  0.49873787  0.41495831    -0.71900
O171        O  0.44150821  0.45385154  0.43626528    -0.71700
O172        O  0.43965721  0.04089152  0.43752745    -0.71800
O173        O  0.98944304  0.04182227  0.43751878    -0.71700
O174        O  0.99113315  0.45470409  0.43805619    -0.71700
O175        O  0.99200530  0.99792890  0.41601077    -0.71700
O176        O  0.98862228  0.49901718  0.45959709    -0.71900
V177        V  0.44154177  0.49739640  0.43690232     1.35200
V178        V  0.98932165  0.49828835  0.43778616     1.35200
C179        C  0.96330833  0.49821163  0.46670588     0.77600
C180        C  0.96783144  0.49877126  0.40797379     0.77600
C181        C  0.46660449  0.43932653  0.43706181     0.77500
C182        C  0.46425941  0.05625358  0.43761590     0.77500
O183        O  0.43895904  0.24922527  0.45860809    -0.71700
O184        O  0.44156011  0.24648669  0.41469927    -0.71900
O185        O  0.43971213  0.20416129  0.43733046    -0.71700
O186        O  0.44053239  0.29125967  0.43598510    -0.71800
O187        O  0.99021172  0.29102760  0.43735091    -0.71700
O188        O  0.98950730  0.20392843  0.43737674    -0.71700
O189        O  0.99126470  0.24731802  0.41565427    -0.71700
O190        O  0.98866899  0.24760716  0.45913513    -0.71900
V191        V  0.44110038  0.24775486  0.43667116     1.35200
V192        V  0.98890333  0.24744901  0.43737199     1.35200
C193        C  0.96356897  0.24890712  0.46637941     0.77600
C194        C  0.96706691  0.24666908  0.40767477     0.77600
C195        C  0.46455008  0.18913533  0.43735013     0.77500
C196        C  0.46544373  0.30609195  0.43656673     0.77500
O197        O  0.30896697  0.99848776  0.41513323    -0.71700
O198        O  0.31150555  0.49721943  0.45890522    -0.71900
O199        O  0.31022298  0.45422576  0.43673214    -0.71700
O200        O  0.31006867  0.04135826  0.43721891    -0.71800
O201        O  0.26031403  0.04133882  0.43752206    -0.71700
O202        O  0.26051135  0.45433809  0.43785983    -0.71700
O203        O  0.26177498  0.99800816  0.45955461    -0.71700
O204        O  0.25923904  0.49756048  0.41594351    -0.71900
V205        V  0.30925017  0.49781961  0.43702463     1.35200
V206        V  0.26144327  0.49780566  0.43772373     1.35200
C207        C  0.28361852  0.49827143  0.40804306     0.77600
C208        C  0.28702508  0.49744068  0.46673998     0.77600
C209        C  0.28530414  0.43934901  0.43722445     0.77500
C210        C  0.28516723  0.05628637  0.43721664     0.77500
O211        O  0.26121297  0.24707984  0.45925147    -0.71700
O212        O  0.25820407  0.24952457  0.41586584    -0.71900
O213        O  0.25907162  0.20466874  0.43692546    -0.71700
O214        O  0.26067585  0.29175535  0.43807047    -0.71800
O215        O  0.31036963  0.29090462  0.43681043    -0.71700
O216        O  0.30882746  0.20392148  0.43654254    -0.71700
O217        O  0.30790283  0.24766639  0.41478324    -0.71700
O218        O  0.31093382  0.24708171  0.45869379    -0.71900
V219        V  0.26079954  0.24822254  0.43753230     1.35200
V220        V  0.30859572  0.24740394  0.43673116     1.35200
C221        C  0.28633121  0.24697407  0.46648572     0.77600
C222        C  0.28234822  0.24897322  0.40785603     0.77600
C223        C  0.28372670  0.18936931  0.43652924     0.77500
C224        C  0.28579079  0.30626124  0.43743207     0.77500
O225        O  0.99985433  0.43422082  0.04145042    -0.71700
O226        O  0.49684598  0.43905555  0.08522881    -0.71900
O227        O  0.45460263  0.43667315  0.06255288    -0.71700
O228        O  0.04195453  0.43668260  0.06412331    -0.71800
O229        O  0.04164512  0.98632996  0.06246540    -0.71700
O230        O  0.45483311  0.98639497  0.06148751    -0.71700
O231        O  0.99738266  0.98869759  0.08366405    -0.71700
O232        O  0.49934271  0.98389793  0.04028602    -0.71900
V233        V  0.49827608  0.43754572  0.06331776     1.35200
V234        V  0.49827794  0.98529623  0.06200232     1.35200
C235        C  0.50014859  0.95842116  0.03337696     0.77600
C236        C  0.49705448  0.96486570  0.09192559     0.77600
C237        C  0.43978428  0.46162724  0.06177775     0.77500
C238        C  0.05672524  0.46166995  0.06347254     0.77500
O239        O  0.49994465  0.31550736  0.04085226    -0.71700
O240        O  0.00161722  0.31198678  0.08464297    -0.71900
O241        O  0.04428806  0.31348476  0.06229721    -0.71700
O242        O  0.45719630  0.31426548  0.06341595    -0.71800
O243        O  0.45687345  0.26451877  0.06243669    -0.71700
O244        O  0.04403494  0.26376861  0.06119689    -0.71700
O245        O  0.50133721  0.26227978  0.08353548    -0.71700
O246        O  0.99937359  0.26578378  0.04006503    -0.71900
V247        V  0.00076709  0.31287558  0.06275712     1.35200
V248        V  0.00041478  0.26508152  0.06181340     1.35200
C249        C  0.99959366  0.29108651  0.03295996     0.77600
C250        C  0.00142281  0.28643396  0.09157402     0.77600
C251        C  0.05910089  0.28857354  0.06161407     0.77500
C252        C  0.44214126  0.28946897  0.06339500     0.77500
O253        O  0.25008890  0.44135678  0.08505997    -0.71700
O254        O  0.24697808  0.43748509  0.04132163    -0.71900
O255        O  0.29201680  0.43988985  0.06232488    -0.71700
O256        O  0.20517304  0.43849165  0.06405875    -0.71800
O257        O  0.20414417  0.98815827  0.06252692    -0.71700
O258        O  0.29143981  0.98963811  0.06166054    -0.71700
O259        O  0.24685023  0.98720775  0.04034889    -0.71700
O260        O  0.24845818  0.99100990  0.08381197    -0.71900
V261        V  0.24857876  0.44026445  0.06316783     1.35200
V262        V  0.24776787  0.98803969  0.06210680     1.35200
C263        C  0.24935174  0.96698003  0.09192407     0.77600
C264        C  0.24637103  0.96181577  0.03335615     0.77600
C265        C  0.30666347  0.46489107  0.06177648     0.77500
C266        C  0.18974732  0.46300235  0.06355844     0.77500
O267        O  0.24781578  0.26064382  0.08411781    -0.71700
O268        O  0.25398138  0.26548838  0.04061840    -0.71900
O269        O  0.29428702  0.26334970  0.06387280    -0.71700
O270        O  0.20745372  0.26266860  0.06080867    -0.71800
O271        O  0.20689067  0.31220488  0.06319903    -0.71700
O272        O  0.29413632  0.31311726  0.06427662    -0.71700
O273        O  0.25126713  0.31515378  0.04186963    -0.71700
O274        O  0.24950369  0.31031779  0.08550033    -0.71900
V275        V  0.25089641  0.26400445  0.06238310     1.35200
V276        V  0.25046303  0.31176128  0.06367958     1.35200
C277        C  0.24809467  0.28467333  0.09227645     0.77600
C278        C  0.25302943  0.29110419  0.03378174     0.77600
C279        C  0.30913789  0.28824178  0.06438884     0.77500
C280        C  0.19224749  0.28730927  0.06166784     0.77500
O281        O  0.49739340  0.00149868  0.16455162    -0.71700
O282        O  0.99768527  0.01155873  0.20793461    -0.71900
O283        O  0.04106114  0.00660219  0.18613301    -0.71700
O284        O  0.45375219  0.00621471  0.18617299    -0.71800
O285        O  0.45425039  0.45665289  0.18850604    -0.71700
O286        O  0.04114394  0.45730075  0.18951345    -0.71700
O287        O  0.49635779  0.46203719  0.21072088    -0.71700
O288        O  0.99860780  0.45205824  0.16732293    -0.71900
V289        V  0.99746429  0.00553680  0.18626448     1.35200
V290        V  0.99764043  0.45799492  0.18897621     1.35200
C291        C  0.99800565  0.47511276  0.15849460     0.77600
C292        C  0.99673108  0.48846729  0.21672683     0.77600
C293        C  0.05604829  0.98196544  0.18782085     0.77500
C294        C  0.43908669  0.98120730  0.18718681     0.77500
O295        O  0.50134583  0.29976972  0.16650814    -0.71700
O296        O  0.99640495  0.29380604  0.21004814    -0.71900
O297        O  0.04268008  0.29690254  0.18949280    -0.71700
O298        O  0.45554741  0.29644060  0.18703750    -0.71800
O299        O  0.45617037  0.24669896  0.18653563    -0.71700
O300        O  0.04310807  0.24747237  0.18665849    -0.71700
O301        O  0.49974406  0.24417068  0.20840400    -0.71700
O302        O  0.99954387  0.25017343  0.16481238    -0.71900
V303        V  0.99907771  0.29580498  0.18824472     1.35200
V304        V  0.99963520  0.24809479  0.18663348     1.35200
C305        C  0.00046725  0.27599855  0.15817560     0.77600
C306        C  0.99753171  0.26796550  0.21664427     0.77600
C307        C  0.05783990  0.27221819  0.18835221     0.77500
C308        C  0.44093226  0.27137283  0.18650580     0.77500
O309        O  0.24785882  0.45926031  0.21084742    -0.71700
O310        O  0.24794921  0.45091638  0.16724365    -0.71900
O311        O  0.29148023  0.45541082  0.18894784    -0.71700
O312        O  0.20427027  0.45479745  0.18902459    -0.71800
O313        O  0.20409239  0.00448328  0.18764555    -0.71700
O314        O  0.29100767  0.00471710  0.18551490    -0.71700
O315        O  0.24562142  0.00041004  0.16498581    -0.71700
O316        O  0.24995956  0.00879275  0.20839742    -0.71900
V317        V  0.24786190  0.45602418  0.18899223     1.35200
V318        V  0.24759937  0.00363167  0.18670903     1.35200
C319        C  0.24960321  0.98547052  0.21706018     0.77600
C320        C  0.24677498  0.97431397  0.15864203     0.77600
C321        C  0.30614573  0.48014464  0.18688546     0.77500
C322        C  0.18923308  0.47958779  0.18834655     0.77500
O323        O  0.25115240  0.24174919  0.20872606    -0.71700
O324        O  0.24795873  0.24867350  0.16522144    -0.71900
O325        O  0.29323129  0.24580894  0.18616265    -0.71700
O326        O  0.20604174  0.24493014  0.18772780    -0.71800
O327        O  0.20593551  0.29440916  0.19035502    -0.71700
O328        O  0.29269249  0.29549835  0.18744367    -0.71700
O329        O  0.24654396  0.29829307  0.16717508    -0.71700
O330        O  0.25269603  0.29142590  0.21065452    -0.71900
V331        V  0.24960244  0.24623553  0.18700463     1.35200
V332        V  0.24938516  0.29393414  0.18888276     1.35200
C333        C  0.25311342  0.26538514  0.21708308     0.77600
C334        C  0.24658798  0.27462565  0.15875081     0.77600
C335        C  0.30787677  0.27090401  0.18643310     0.77500
C336        C  0.19104425  0.26959185  0.18927725     0.77500
O337        O  0.49922077  0.98402350  0.91599759    -0.71700
O338        O  0.00051543  0.98040007  0.95944263    -0.71900
O339        O  0.04329846  0.98191171  0.93738218    -0.71700
O340        O  0.45616228  0.98218454  0.93811641    -0.71800
O341        O  0.45609195  0.43250855  0.93674896    -0.71700
O342        O  0.04311213  0.43216528  0.93673516    -0.71700
O343        O  0.49965580  0.43068147  0.95869141    -0.71700
O344        O  0.99974456  0.43432394  0.91484391    -0.71900
V345        V  0.99976117  0.98113626  0.93771589     1.35200
V346        V  0.99961678  0.43335040  0.93677054     1.35200
C347        C  0.99969051  0.45992295  0.90793171     0.77600
C348        C  0.00037650  0.45512005  0.96656502     0.77600
C349        C  0.05812524  0.95696202  0.93696141     0.77500
C350        C  0.44117863  0.95733965  0.93753042     0.77500
O351        O  0.50187538  0.31215413  0.91468825    -0.71700
O352        O  0.00183872  0.31390376  0.95845183    -0.71900
O353        O  0.04546069  0.31335416  0.93660712    -0.71700
O354        O  0.45841143  0.31276397  0.93663444    -0.71800
O355        O  0.45865577  0.26301538  0.93711210    -0.71700
O356        O  0.04575868  0.26360263  0.93718947    -0.71700
O357        O  0.50205326  0.26416428  0.95886552    -0.71700
O358        O  0.00227185  0.26242003  0.91529805    -0.71900
V359        V  0.00191695  0.31209372  0.93658642     1.35200
V360        V  0.00220227  0.26427736  0.93708316     1.35200
C361        C  0.00200757  0.28691876  0.90749260     0.77600
C362        C  0.00171879  0.28924620  0.96615277     0.77600
C363        C  0.06053833  0.28856820  0.93706983     0.77500
C364        C  0.44360589  0.28781668  0.93702674     0.77500
O365        O  0.24899967  0.43335597  0.95905684    -0.71700
O366        O  0.25013356  0.43459978  0.91525943    -0.71900
O367        O  0.29316192  0.43410729  0.93742649    -0.71700
O368        O  0.20605234  0.43381234  0.93692436    -0.71800
O369        O  0.20599675  0.98357661  0.93665377    -0.71700
O370        O  0.29296083  0.98381932  0.93849418    -0.71700
O371        O  0.25142465  0.98433041  0.91579976    -0.71700
O372        O  0.24744580  0.98309231  0.95930024    -0.71900
V373        V  0.24959906  0.43489925  0.93717573     1.35200
V374        V  0.24946398  0.98271873  0.93754374     1.35200
C375        C  0.24765480  0.95807574  0.96666353     0.77600
C376        C  0.25129703  0.95981003  0.90804158     0.77600
C377        C  0.30799991  0.45902499  0.93811464     0.77500
C378        C  0.19110375  0.45869217  0.93672132     0.77500
O379        O  0.25315488  0.26705744  0.96001625    -0.71700
O380        O  0.25116966  0.26436736  0.91653980    -0.71900
O381        O  0.29555219  0.26554251  0.93784613    -0.71700
O382        O  0.20849516  0.26603792  0.93876214    -0.71800
O383        O  0.20866845  0.31568790  0.93709119    -0.71700
O384        O  0.29575043  0.31529889  0.93785620    -0.71700
O385        O  0.25304958  0.31402041  0.91551856    -0.71700
O386        O  0.25149064  0.31681454  0.95939022    -0.71900
V387        V  0.25204953  0.26674402  0.93826688     1.35200
V388        V  0.25221879  0.31453861  0.93747846     1.35200
C389        C  0.25276889  0.29226872  0.96717093     0.77600
C390        C  0.25219111  0.28853279  0.90852168     0.77600
C391        C  0.31058322  0.29035910  0.93789235     0.77500
C392        C  0.19363867  0.29093091  0.93793352     0.77500
O393        O  0.44026127  0.00493288  0.58535157    -0.71700
O394        O  0.43653386  0.50289922  0.54149353    -0.71900
O395        O  0.43804800  0.46052317  0.56393930    -0.71700
O396        O  0.43846185  0.04746123  0.56291752    -0.71800
O397        O  0.98822407  0.04735918  0.56275660    -0.71700
O398        O  0.98766260  0.46019232  0.56199822    -0.71700
O399        O  0.98624967  0.00459482  0.54059862    -0.71700
O400        O  0.98991742  0.50295061  0.58416243    -0.71900
V401        V  0.43926636  0.50398245  0.56340865     1.35200
V402        V  0.98704321  0.50377708  0.56239989     1.35200
C403        C  0.96583098  0.50390094  0.59226823     0.77600
C404        C  0.96089689  0.50356199  0.53354350     0.77600
C405        C  0.46273074  0.44542288  0.56301158     0.77500
C406        C  0.46334563  0.06234646  0.56276617     0.77500
O407        O  0.44032802  0.25218042  0.58482688    -0.71700
O408        O  0.43826867  0.25493208  0.54101066    -0.71900
O409        O  0.43961744  0.21013862  0.56229565    -0.71700
O410        O  0.43905188  0.29728127  0.56353023    -0.71800
O411        O  0.98878045  0.29743632  0.56258097    -0.71700
O412        O  0.98938151  0.21049121  0.56199308    -0.71700
O413        O  0.98802156  0.25454678  0.54046946    -0.71700
O414        O  0.99005356  0.25314610  0.58408178    -0.71900
V415        V  0.44024962  0.25368148  0.56290037     1.35200
V416        V  0.98806493  0.25395480  0.56229692     1.35200
C417        C  0.96565458  0.25189163  0.59195550     0.77600
C418        C  0.96284148  0.25481939  0.53323272     0.77600
C419        C  0.46463525  0.19539158  0.56210397     0.77500
C420        C  0.46389462  0.31229857  0.56310306     0.77500
O421        O  0.31017295  0.99832068  0.54141728    -0.71700
O422        O  0.30794456  0.49885223  0.58524833    -0.71900
O423        O  0.30922310  0.45497882  0.56334296    -0.71700
O424        O  0.30884233  0.04215720  0.56327769    -0.71800
O425        O  0.25909934  0.04176956  0.56263407    -0.71700
O426        O  0.25948011  0.45481200  0.56273160    -0.71700
O427        O  0.25821554  0.99862386  0.58454548    -0.71700
O428        O  0.26044341  0.49807132  0.54094289    -0.71900
V429        V  0.30811472  0.49855743  0.56332272     1.35200
V430        V  0.26030619  0.49831550  0.56273944     1.35200
C431        C  0.28557215  0.49791284  0.53366928     0.77600
C432        C  0.28263603  0.49916983  0.59240772     0.77600
C433        C  0.28440334  0.43995946  0.56283041     0.77500
C434        C  0.28382328  0.05689261  0.56296381     0.77500
O435        O  0.31001140  0.24773399  0.54147478    -0.71700
O436        O  0.30558232  0.24942707  0.58521567    -0.71900
O437        O  0.30837846  0.20519876  0.56381485    -0.71700
O438        O  0.30739381  0.29213154  0.56286058    -0.71800
O439        O  0.25768131  0.29170142  0.56180111    -0.71700
O440        O  0.25869482  0.20453665  0.56245757    -0.71700
O441        O  0.25590311  0.24863237  0.58399264    -0.71700
O442        O  0.26031059  0.24753421  0.54037650    -0.71900
V443        V  0.30687347  0.24864087  0.56332992     1.35200
V444        V  0.25910713  0.24811759  0.56218474     1.35200
C445        C  0.28582722  0.24739213  0.53342229     0.77600
C446        C  0.27998851  0.24902963  0.59211458     0.77600
C447        C  0.28376137  0.18994256  0.56323681     0.77500
C448        C  0.28242839  0.30685306  0.56212118     0.77500
C449        C  0.28426727  0.40591635  0.56224800    -0.05400
C450        C  0.25619592  0.39020925  0.56097899    -0.32800
C451        C  0.25513513  0.35810394  0.56071158     0.36500
C452        C  0.28250823  0.34090915  0.56177018    -0.05700
C453        C  0.31060753  0.35664490  0.56266759    -0.32700
C454        C  0.31167704  0.38871729  0.56279471     0.36400
H455        H  0.23481736  0.40281761  0.56022913     0.16700
O456        O  0.22719984  0.34391423  0.55921781    -0.60200
H457        H  0.33202438  0.34408075  0.56334096     0.16800
O458        O  0.33970599  0.40288246  0.56370977    -0.60300
H459        H  0.34692279  0.40462993  0.55294231     0.43700
H460        H  0.21887514  0.34256877  0.56980071     0.43700
C461        C  0.28353375  0.09092440  0.56305849    -0.05400
C462        C  0.31111890  0.10705439  0.56518911    -0.32800
C463        C  0.31163471  0.13916569  0.56532617     0.36500
C464        C  0.28416287  0.15591512  0.56333726    -0.05700
C465        C  0.25659027  0.13977097  0.56124958    -0.32700
C466        C  0.25606275  0.10769093  0.56114840     0.36400
H467        H  0.33250039  0.09477608  0.56681156     0.16700
O468        O  0.33908408  0.15381068  0.56772694    -0.60200
H469        H  0.23519832  0.15202102  0.55961876     0.16800
O470        O  0.22856930  0.09308749  0.55883319    -0.60300
H471        H  0.21899987  0.09168799  0.56915280     0.43700
H472        H  0.34911746  0.15460143  0.55750327     0.43700
C473        C  0.46259146  0.41137658  0.56309708    -0.05400
C474        C  0.99019138  0.39543193  0.56072364    -0.32800
C475        C  0.99097972  0.36335733  0.56066356     0.36500
C476        C  0.46381857  0.34635862  0.56311925    -0.05700
C477        C  0.43617132  0.36229185  0.56546477    -0.32700
C478        C  0.43540484  0.39441271  0.56553806     0.36400
H479        H  0.01139155  0.40783958  0.55879945     0.16700
O480        O  0.01854746  0.34898553  0.55819163    -0.60200
H481        H  0.41497025  0.34985257  0.56734482     0.16800
O482        O  0.40786307  0.40887156  0.56792928    -0.60300
H483        H  0.40587254  0.41063852  0.57924794     0.43700
H484        H  0.02007475  0.34661347  0.54688401     0.43700
C485        C  0.46342259  0.09638977  0.56255586    -0.05400
C486        C  0.99138334  0.11228464  0.56372020    -0.32800
C487        C  0.99224040  0.14438659  0.56358573     0.36500
C488        C  0.46477709  0.16136974  0.56214531    -0.05700
C489        C  0.43684837  0.14547125  0.56097184    -0.32700
C490        C  0.43598165  0.11340408  0.56112272     0.36400
H491        H  0.01278551  0.09982506  0.56484016     0.16700
O492        O  0.02011885  0.15878392  0.56484192    -0.60200
H493        H  0.41542161  0.15790593  0.55988940     0.16800
O494        O  0.40805774  0.09906441  0.55997568    -0.60300
H495        H  0.40415489  0.09715583  0.54878988     0.43700
H496        H  0.02356256  0.16123227  0.57604083     0.43700
C497        C  0.40958077  0.28795509  0.93745979    -0.05400
C498        C  0.39396360  0.31615334  0.93752307    -0.32800
C499        C  0.36191155  0.31738381  0.93777671     0.36500
C500        C  0.34461733  0.29001364  0.93794036    -0.05700
C501        C  0.36022600  0.26177851  0.93807877    -0.32700
C502        C  0.39231948  0.26056817  0.93794965     0.36400
H503        H  0.40663445  0.33750799  0.93733667     0.16700
O504        O  0.34786797  0.34554267  0.93803768    -0.60200
H505        H  0.34754851  0.24039984  0.93830042     0.16800
O506        O  0.40642319  0.23243071  0.93812252    -0.60300
H507        H  0.40828474  0.22696476  0.94914955     0.43700
H508        H  0.34642863  0.35189885  0.92711556     0.43700
C509        C  0.09457216  0.28894361  0.93750501    -0.05400
C510        C  0.11029939  0.31664844  0.93501173    -0.32800
C511        C  0.14240344  0.31777628  0.93517153     0.36500
C512        C  0.15957343  0.29084749  0.93791870    -0.05700
C513        C  0.14381621  0.26322432  0.94059870    -0.32700
C514        C  0.11172999  0.26213480  0.94051479     0.36400
H515        H  0.09769452  0.33760079  0.93278133     0.16700
O516        O  0.15663286  0.34539580  0.93266309    -0.60200
H517        H  0.15638271  0.24225352  0.94286759     0.16800
O518        O  0.09750274  0.23466277  0.94341380    -0.60300
H519        H  0.09473756  0.23401756  0.95472504     0.43700
H520        H  0.15822120  0.34730911  0.92133417     0.43700
C521        C  0.40710146  0.95744007  0.93780714    -0.05400
C522        C  0.39132022  0.98521551  0.94003352    -0.32800
C523        C  0.35920004  0.98617730  0.94024813     0.36500
C524        C  0.34206274  0.45897328  0.93826541    -0.05700
C525        C  0.35785090  0.43119457  0.93614357    -0.32700
C526        C  0.38993349  0.43021993  0.93594107     0.36400
H527        H  0.40388671  0.00642195  0.94163211     0.16700
O528        O  0.34492889  0.01381244  0.94267319    -0.60200
H529        H  0.34529246  0.41000841  0.93452378     0.16800
O530        O  0.40413139  0.40252787  0.93361360    -0.60300
H531        H  0.40621910  0.39339343  0.94399584     0.43700
H532        H  0.34388818  0.02367326  0.93241550     0.43700
C533        C  0.15708944  0.45856218  0.93667097    -0.05400
C534        C  0.14131217  0.43076369  0.93459099    -0.32800
C535        C  0.10921634  0.42980120  0.93457470     0.36500
C536        C  0.09213805  0.95698593  0.93677522    -0.05700
C537        C  0.10793162  0.98476881  0.93884325    -0.32700
C538        C  0.13999680  0.98571956  0.93888556     0.36400
H539        H  0.15387429  0.40959276  0.93288453     0.16700
O540        O  0.09490768  0.40208729  0.93248238    -0.60200
H541        H  0.09541317  0.00596495  0.94059260     0.16800
O542        O  0.15426542  0.01339474  0.94116648    -0.60300
H543        H  0.15659397  0.01523984  0.95246174     0.43700
H544        H  0.09334091  0.39952223  0.92119163     0.43700
C545        C  0.40690563  0.27098661  0.18594243    -0.05400
C546        C  0.39064707  0.29882161  0.18614453    -0.32800
C547        C  0.35854463  0.29924742  0.18598946     0.36500
C548        C  0.34189427  0.27142755  0.18579315    -0.05700
C549        C  0.35815768  0.24363505  0.18525120    -0.32700
C550        C  0.39025286  0.24321221  0.18533777     0.36400
H551        H  0.40281495  0.32048829  0.18650126     0.16700
O552        O  0.34381913  0.32706399  0.18630744    -0.60200
H553        H  0.34599355  0.22196707  0.18492155     0.16800
O554        O  0.40498625  0.21542476  0.18472138    -0.60300
H555        H  0.40623840  0.20836347  0.19553931     0.43700
H556        H  0.34159033  0.33313077  0.17537767     0.43700
C557        C  0.09190941  0.27191056  0.18897372    -0.05400
C558        C  0.10757085  0.24372945  0.18816359    -0.32800
C559        C  0.13967004  0.24247589  0.18840406     0.36500
C560        C  0.15695819  0.26976459  0.18954310    -0.05700
C561        C  0.14128733  0.29790355  0.19055395    -0.32700
C562        C  0.10918832  0.29914725  0.19033862     0.36400
H563        H  0.09492796  0.22240472  0.18725336     0.16700
O564        O  0.15376223  0.21436561  0.18764637    -0.60200
H565        H  0.15393330  0.31923368  0.19141569     0.16800
O566        O  0.09509509  0.32723862  0.19116600    -0.60300
H567        H  0.09304786  0.33157118  0.20230695     0.43700
H568        H  0.15517300  0.20957812  0.17653032     0.43700
C569        C  0.40508472  0.98054373  0.18678900    -0.05400
C570        C  0.38878041  0.00612415  0.18133450    -0.32800
C571        C  0.35665457  0.00606576  0.18090272     0.36500
C572        C  0.34013192  0.48033373  0.18629035    -0.05700
C573        C  0.35646116  0.45452185  0.19140221    -0.32700
C574        C  0.38853880  0.45446565  0.19171222     0.36400
H575        H  0.40095831  0.02620032  0.17723697     0.16700
O576        O  0.34174604  0.03129704  0.17514567    -0.60200
H577        H  0.34434520  0.43438526  0.19547129     0.16800
O578        O  0.40338277  0.42882538  0.19703866    -0.60300
H579        H  0.40559019  0.43207955  0.20826405     0.43700
H580        H  0.33885710  0.02692335  0.16405411     0.43700
C581        C  0.09012322  0.98170199  0.18783007    -0.05400
C582        C  0.10576222  0.45397133  0.19047681    -0.32800
C583        C  0.13786580  0.45276980  0.19057540     0.36500
C584        C  0.15515865  0.47973842  0.18819430    -0.05700
C585        C  0.13952041  0.00740995  0.18542326    -0.32700
C586        C  0.10742648  0.00856979  0.18520705     0.36400
H587        H  0.09309580  0.43295971  0.19249090     0.16700
O588        O  0.15196340  0.42515816  0.19330796    -0.60200
H589        H  0.15219305  0.02838569  0.18332918     0.16800
O590        O  0.09335231  0.03603948  0.18211376    -0.60300
H591        H  0.09193983  0.04667152  0.19216580     0.43700
H592        H  0.15301670  0.41488525  0.18315091     0.43700
C593        C  0.25381135  0.29256319  0.01675541    -0.05400
C594        C  0.26677311  0.26810805  0.00851072    -0.32800
C595        C  0.26710340  0.26811803  0.99244328     0.36500
C596        C  0.25390644  0.29270056  0.98420233    -0.05700
C597        C  0.24136596  0.31745220  0.99241463    -0.32700
C598        C  0.24110653  0.31747255  0.00854509     0.36400
H599        H  0.27692369  0.24887374  0.01455112     0.16700
O600        O  0.28059038  0.24395564  0.98492788    -0.60200
H601        H  0.23096891  0.33645769  0.98631642     0.16800
O602        O  0.22764537  0.34156696  0.01611989    -0.60300
H603        H  0.20591914  0.33540306  0.01757908     0.43700
H604        H  0.30216154  0.25036583  0.98319728     0.43700
C605        C  0.24693764  0.28269535  0.10930221    -0.05400
C606        C  0.23701928  0.25542687  0.11635881    -0.32800
C607        C  0.23620707  0.25265413  0.13239172     0.36500
C608        C  0.24569557  0.27731422  0.14175870    -0.05700
C609        C  0.25516969  0.30473298  0.13471589    -0.32700
C610        C  0.25603154  0.30750160  0.11868491     0.36400
H611        H  0.22967285  0.23614019  0.10942441     0.16700
O612        O  0.22597035  0.22572191  0.13874375    -0.60200
H613        H  0.26267592  0.32395055  0.14165710     0.16800
O614        O  0.26637036  0.33442080  0.11236150    -0.60300
H615        H  0.28875589  0.33145489  0.11092748     0.43700
H616        H  0.20375780  0.22895169  0.14060673     0.43700
C617        C  0.24633582  0.95818241  0.98372793    -0.05400
C618        C  0.24000887  0.98581243  0.99142236    -0.32800
C619        C  0.23957914  0.98727041  0.00747638     0.36500
C620        C  0.24546736  0.96070554  0.01629774    -0.05700
C621        C  0.25111078  0.43289481  0.00862204    -0.32700
C622        C  0.25152414  0.43145864  0.99252606     0.36400
H623        H  0.23541592  0.00659206  0.98498060     0.16700
O624        O  0.23274658  0.01474722  0.01437160    -0.60200
H625        H  0.25568779  0.41216404  0.01510471     0.16800
O626        O  0.25797213  0.40396842  0.98558221    -0.60300
H627        H  0.23792471  0.39343232  0.98467211     0.43700
H628        H  0.25227266  0.02635993  0.01446403     0.43700
C629        C  0.24908017  0.96889911  0.10899406    -0.05400
C630        C  0.24960041  0.44192403  0.11786517    -0.32800
C631        C  0.24859834  0.44311710  0.13397305     0.36500
C632        C  0.24718000  0.97170752  0.14159010    -0.05700
C633        C  0.24668372  0.99861476  0.13269326    -0.32700
C634        C  0.24774239  0.99745746  0.11664671     0.36400
H635        H  0.25066962  0.41969811  0.11231837     0.16700
O636        O  0.24942484  0.41615392  0.14209172    -0.60200
H637        H  0.24561299  0.02090175  0.13817759     0.16800
O638        O  0.24702309  0.02454062  0.10861629    -0.60300
H639        H  0.26876589  0.03107112  0.10778522     0.43700
H640        H  0.22775491  0.40935313  0.14277845     0.43700
C641        C  0.40816985  0.28935657  0.06438254    -0.05400
C642        C  0.39210277  0.26273511  0.06023803    -0.32800
C643        C  0.36005569  0.26184940  0.06059804     0.36500
C644        C  0.34318459  0.28814725  0.06487678    -0.05700
C645        C  0.35923847  0.31460160  0.06944682    -0.32700
C646        C  0.39143043  0.31517025  0.06946693     0.36400
H647        H  0.40440076  0.24247252  0.05647819     0.16700
O648        O  0.34551985  0.23541886  0.05612406    -0.60200
H649        H  0.34683271  0.33484961  0.07314350     0.16800
O650        O  0.40621355  0.34095440  0.07461727    -0.60300
H651        H  0.40978242  0.33732719  0.08572473     0.43700
H652        H  0.34489308  0.22236832  0.06546316     0.43700
C653        C  0.09316551  0.28845308  0.06137118    -0.05400
C654        C  0.10907452  0.26149765  0.05744477    -0.32800
C655        C  0.14123814  0.26075467  0.05724685     0.36500
C656        C  0.15820227  0.28724095  0.06116476    -0.05700
C657        C  0.14224953  0.31419738  0.06494638    -0.32700
C658        C  0.11018577  0.31494597  0.06515610     0.36400
H659        H  0.09656688  0.24087721  0.05443084     0.16700
O660        O  0.15571762  0.23394907  0.05327975    -0.60200
H661        H  0.15465629  0.33483056  0.06803556     0.16800
O662        O  0.09582891  0.34173139  0.06925710    -0.60300
H663        H  0.09387369  0.34075827  0.08060428     0.43700
H664        H  0.15818982  0.23496768  0.04195909     0.43700
C665        C  0.99973920  0.29144499  0.01585687    -0.05400
C666        C  0.49774052  0.26344539  0.00790345    -0.32800
C667        C  0.49824292  0.26238164  0.99185181     0.36500
C668        C  0.00103544  0.28969207  0.98323886    -0.05700
C669        C  0.00296844  0.31774480  0.99115371    -0.32700
C670        C  0.00242190  0.31880125  0.00727400     0.36400
H671        H  0.49571871  0.24202112  0.01413940     0.16700
O672        O  0.49620080  0.23434139  0.98477178    -0.60200
H673        H  0.00515425  0.33899831  0.98482527     0.16800
O674        O  0.00440417  0.34671076  0.01445893    -0.60300
H675        H  0.02663519  0.35153994  0.01477429     0.43700
H676        H  0.47392617  0.23049559  0.98357091     0.43700
C677        C  0.00094315  0.28438761  0.10862718    -0.05400
C678        C  0.99719275  0.25555166  0.11563681    -0.32800
C679        C  0.99680645  0.25245401  0.13164275     0.36500
C680        C  0.00038573  0.27849020  0.14112056    -0.05700
C681        C  0.50367983  0.30741413  0.13411839    -0.32700
C682        C  0.50376008  0.31053687  0.11808040     0.36400
H683        H  0.99438049  0.23512138  0.10869064     0.16700
O684        O  0.99217346  0.22387365  0.13783286    -0.60200
H685        H  0.50623817  0.32784322  0.14108863     0.16800
O686        O  0.50716360  0.33923901  0.11183598    -0.60300
H687        H  0.48614140  0.34790722  0.11141002     0.43700
H688        H  0.01274939  0.21416903  0.13808653     0.43700
C689        C  0.34072008  0.46472528  0.06133560    -0.05400
C690        C  0.35623045  0.43695100  0.05860664    -0.32800
C691        C  0.38831605  0.43555190  0.05860393     0.36500
C692        C  0.40573082  0.46224281  0.06136159    -0.05700
C693        C  0.39023754  0.99011887  0.06386076    -0.32700
C694        C  0.35812576  0.99154535  0.06382639     0.36400
H695        H  0.34345606  0.41605931  0.05646343     0.16700
O696        O  0.40230379  0.40802720  0.05559544    -0.60200
H697        H  0.40303558  0.01097200  0.06605474     0.16800
O698        O  0.34411500  0.01911433  0.06677106    -0.60300
H699        H  0.34307812  0.02966463  0.05673663     0.43700
H700        H  0.40441272  0.39798686  0.06575223     0.43700
C701        C  0.09075075  0.46221398  0.06380001    -0.05400
C702        C  0.10715183  0.43551314  0.06759901    -0.32800
C703        C  0.13931048  0.43538972  0.06771955     0.36500
C704        C  0.15574215  0.46233341  0.06398392    -0.05700
C705        C  0.13930951  0.98906426  0.06037364    -0.32700
C706        C  0.10724372  0.98923124  0.06030027     0.36400
H707        H  0.09505451  0.41459256  0.07053291     0.16700
O708        O  0.15433609  0.40899371  0.07187671    -0.60200
H709        H  0.15133202  0.01000495  0.05740329     0.16800
O710        O  0.09236762  0.01580001  0.05630035    -0.60300
H711        H  0.09097019  0.02787151  0.06593596     0.43700
H712        H  0.15482226  0.39620235  0.06245501     0.43700
C713        C  0.50118434  0.95728350  0.01628810    -0.05400
C714        C  0.00072320  0.42896106  0.00854017    -0.32800
C715        C  0.00064430  0.42761309  0.99239905     0.36500
C716        C  0.00104090  0.45491757  0.98366564    -0.05700
C717        C  0.50204155  0.98311430  0.99146364    -0.32700
C718        C  0.50232787  0.98449270  0.00748713     0.36400
H719        H  0.00014321  0.40776293  0.01500718     0.16700
O720        O  0.00043013  0.39951159  0.98534163    -0.60200
H721        H  0.50258736  0.00450888  0.98512612     0.16800
O722        O  0.50330060  0.01279566  0.01435770    -0.60300
H723        H  0.52544737  0.01770573  0.01533011     0.43700
H724        H  0.97850008  0.39347390  0.98487901     0.43700
C725        C  0.49724489  0.96737820  0.10896748    -0.05400
C726        C  0.99374443  0.44102336  0.11813196    -0.32800
C727        C  0.99415816  0.44296847  0.13423299     0.36500
C728        C  0.99796443  0.47169677  0.14150478    -0.05700
C729        C  0.50158152  0.99793308  0.13232013    -0.32700
C730        C  0.50122606  0.99602982  0.11629567     0.36400
H731        H  0.99058726  0.41876015  0.11282729     0.16700
O732        O  0.99004784  0.41672098  0.14268894    -0.60200
H733        H  0.50482009  0.02024631  0.13755929     0.16800
O734        O  0.50555633  0.02239920  0.10795848    -0.60300
H735        H  0.48495508  0.03193500  0.10718102     0.43700
H736        H  0.01066416  0.40720892  0.14337395     0.43700
C737        C  0.28648301  0.24689072  0.48361928    -0.05400
C738        C  0.31419734  0.24414516  0.49179758    -0.32800
C739        C  0.31454180  0.24424799  0.50795424     0.36500
C740        C  0.28684592  0.24704012  0.51630383    -0.05700
C741        C  0.25926746  0.24976724  0.50809050    -0.32700
C742        C  0.25885450  0.24965231  0.49203344     0.36400
H743        H  0.33573346  0.24190125  0.48567299     0.16700
O744        O  0.34208157  0.24125564  0.51539665    -0.60200
H745        H  0.23764974  0.25216283  0.51412674     0.16800
O746        O  0.23115531  0.25298111  0.48473678    -0.60300
H747        H  0.22239581  0.23200668  0.48422591     0.43700
H748        H  0.34849444  0.26258156  0.51777342     0.43700
C749        C  0.28520975  0.40530749  0.43710734    -0.05400
C750        C  0.31314532  0.38925998  0.43780958    -0.32800
C751        C  0.31378511  0.35714994  0.43781797     0.36500
C752        C  0.28614560  0.34030242  0.43729158    -0.05700
C753        C  0.25825920  0.35635858  0.43643931    -0.32700
C754        C  0.25758957  0.38843528  0.43633421     0.36400
H755        H  0.33470274  0.40159660  0.43837474     0.16700
O756        O  0.34161003  0.34258414  0.43853608    -0.60200
H757        H  0.23670532  0.34404028  0.43579064     0.16800
O758        O  0.22975005  0.40293147  0.43513421    -0.60300
H759        H  0.22161318  0.40380769  0.44577018     0.43700
H760        H  0.34803784  0.33999818  0.42767751     0.43700
C761        C  0.28497534  0.09033576  0.43675948    -0.05400
C762        C  0.25695696  0.10617394  0.43555724    -0.32800
C763        C  0.25608685  0.13829865  0.43518788     0.36500
C764        C  0.28356569  0.15533380  0.43620704    -0.05700
C765        C  0.31156582  0.13945678  0.43709956    -0.32700
C766        C  0.31242834  0.10741463  0.43742370     0.36400
H767        H  0.23552370  0.09365598  0.43487235     0.16700
O768        O  0.22818668  0.15266952  0.43397450    -0.60200
H769        H  0.33305847  0.15188727  0.43774813     0.16800
O770        O  0.34036447  0.09312877  0.43841012    -0.60300
H771        H  0.34449564  0.09124662  0.44957943     0.43700
H772        H  0.22451845  0.15480980  0.42277546     0.43700
C773        C  0.28603335  0.49723659  0.51654376    -0.05400
C774        C  0.31412953  0.49759677  0.50856431    -0.32800
C775        C  0.31503089  0.49749556  0.49242130     0.36500
C776        C  0.28746258  0.49705509  0.48386695    -0.05700
C777        C  0.25947323  0.99626760  0.49188078    -0.32700
C778        C  0.25856253  0.99612451  0.50794649     0.36400
H779        H  0.33557798  0.49805643  0.51484170     0.16700
O780        O  0.34301458  0.49746816  0.48519605    -0.60200
H781        H  0.23793208  0.99567910  0.48567801     0.16800
O782        O  0.23048718  0.99518899  0.51506286    -0.60300
H783        H  0.22563865  0.97305154  0.51614132     0.43700
H784        H  0.34925989  0.51933046  0.48469313     0.43700
C785        C  0.96330851  0.25039141  0.48349252    -0.05400
C786        C  0.43587879  0.25661156  0.49143026    -0.32800
C787        C  0.43538686  0.25877358  0.50753650     0.36500
C788        C  0.96251796  0.25424096  0.51611287    -0.05700
C789        C  0.98992620  0.24831515  0.50814980    -0.32700
C790        C  0.99050292  0.24625754  0.49210595     0.36400
H791        H  0.41471627  0.26015234  0.48514387     0.16700
O792        O  0.40822063  0.26540798  0.51473363    -0.60200
H793        H  0.01114829  0.24478899  0.51438715     0.16800
O794        O  0.01796002  0.24015682  0.48502260    -0.60300
H795        H  0.01916239  0.21746126  0.48445114     0.43700
H796        H  0.40739888  0.28811914  0.51523659     0.43700
C797        C  0.46568134  0.34017360  0.43644537    -0.05400
C798        C  0.99324808  0.35604783  0.43910668    -0.32800
C799        C  0.99407231  0.38819770  0.43927512     0.36500
C800        C  0.46694879  0.40524044  0.43678649    -0.05700
C801        C  0.43946988  0.38932371  0.43402045    -0.32700
C802        C  0.43864900  0.35725597  0.43388908     0.36400
H803        H  0.01432166  0.34353517  0.44120501     0.16700
O804        O  0.02140627  0.40258459  0.44228200    -0.60200
H805        H  0.41832136  0.40174994  0.43197432     0.16800
O806        O  0.41121121  0.34295840  0.43111118    -0.60300
H807        H  0.40211886  0.33957082  0.44141875     0.43700
H808        H  0.03204706  0.40382581  0.43223026     0.43700
C809        C  0.46383243  0.09022319  0.43765655    -0.05400
C810        C  0.98991402  0.10628124  0.43267901    -0.32800
C811        C  0.99038751  0.13835653  0.43246481     0.36500
C812        C  0.46446513  0.15514154  0.43733315    -0.05700
C813        C  0.43826916  0.13910132  0.44225559    -0.32700
C814        C  0.43782119  0.10696055  0.44245810     0.36400
H815        H  0.01000548  0.09393482  0.42872369     0.16700
O816        O  0.01592368  0.15300304  0.42687990    -0.60200
H817        H  0.41814505  0.15149276  0.44613606     0.16800
O818        O  0.41215864  0.09224137  0.44780811    -0.60300
H819        H  0.39980825  0.08786223  0.43850430     0.43700
H820        H  0.03053995  0.15363281  0.43560810     0.43700
C821        C  0.96236921  0.49999172  0.48380297    -0.05400
C822        C  0.43561563  0.49173952  0.49187379    -0.32800
C823        C  0.43443480  0.49324121  0.50800762     0.36500
C824        C  0.96035008  0.50300838  0.51642913    -0.05700
C825        C  0.98681935  0.01176759  0.50831440    -0.32700
C826        C  0.98800497  0.01036548  0.49225626     0.36400
H827        H  0.41558731  0.48375834  0.48568155     0.16700
O828        O  0.40821097  0.48402340  0.51539914    -0.60200
H829        H  0.00687860  0.01987340  0.51444363     0.16800
O830        O  0.01412573  0.02018685  0.48495102    -0.60300
H831        H  0.02846335  0.00251822  0.48537060     0.43700
H832        H  0.39489568  0.50245367  0.51565773     0.43700
C833        C  0.26148575  0.25634548  0.26613518    -0.05400
C834        C  0.28025659  0.27701782  0.25808288    -0.32800
C835        C  0.27728796  0.28059684  0.24214354     0.36500
C836        C  0.25607686  0.26255542  0.23393437    -0.05700
C837        C  0.23793614  0.24124291  0.24192380    -0.32700
C838        C  0.24009582  0.23848847  0.25794156     0.36400
H839        H  0.29688736  0.29086156  0.26421145     0.16700
O840        O  0.29613402  0.30082727  0.23460011    -0.60200
H841        H  0.22167861  0.22703921  0.23575284     0.16800
O842        O  0.22208398  0.21741341  0.26541196    -0.60300
H843        H  0.20221267  0.22790229  0.26712373     0.43700
H844        H  0.28597042  0.32106056  0.23559809     0.43700
C845        C  0.27649761  0.24850652  0.35833632    -0.05400
C846        C  0.25154780  0.25840454  0.36725590    -0.32800
C847        C  0.25329476  0.25901370  0.38329957     0.36500
C848        C  0.28040179  0.24954146  0.39083403    -0.05700
C849        C  0.30547331  0.23984528  0.38192390    -0.32700
C850        C  0.30371537  0.23929459  0.36583319     0.36400
H851        H  0.23058233  0.26609664  0.36177951     0.16700
O852        O  0.22863526  0.26990504  0.39145418    -0.60200
H853        H  0.32641699  0.23221466  0.38743788     0.16800
O854        O  0.32837651  0.22866252  0.35760565    -0.60300
H855        H  0.34254432  0.24635394  0.35677533     0.43700
H856        H  0.21421429  0.25238411  0.39219901     0.43700
C857        C  0.27032481  0.40841445  0.31438571    -0.05400
C858        C  0.24277313  0.39246506  0.31698081    -0.32800
C859        C  0.24200574  0.36037675  0.31715553     0.36500
C860        C  0.26909523  0.34341041  0.31452643    -0.05700
C861        C  0.29683884  0.35934369  0.31247790    -0.32700
C862        C  0.29764322  0.39144904  0.31238191     0.36400
H863        H  0.22152843  0.40487479  0.31878239     0.16700
O864        O  0.21449502  0.34596901  0.31971794    -0.60200
H865        H  0.31807841  0.34691511  0.31068973     0.16800
O866        O  0.32533486  0.40587139  0.31036561    -0.60300
H867        H  0.32853940  0.40652604  0.29908826     0.43700
H868        H  0.21323814  0.34336337  0.33102303     0.43700
C869        C  0.26905756  0.15846242  0.31059814    -0.05400
C870        C  0.24124771  0.14254912  0.30871026    -0.32800
C871        C  0.24042318  0.11040270  0.30858308     0.36500
C872        C  0.26771239  0.09338931  0.31054098    -0.05700
C873        C  0.29553789  0.10934054  0.31228802    -0.32700
C874        C  0.29637527  0.14144185  0.31239091     0.36400
H875        H  0.21995377  0.15505370  0.30725032     0.16700
O876        O  0.21274036  0.09597606  0.30659868    -0.60200
H877        H  0.31685429  0.09691201  0.31382353     0.16800
O878        O  0.32407047  0.15583075  0.31443520    -0.60300
H879        H  0.32642430  0.15793275  0.32571598     0.43700
H880        H  0.21061308  0.09329152  0.29533813     0.43700
C881        C  0.25913841  0.99521817  0.26619169    -0.05400
C882        C  0.24059580  0.47186763  0.26007872    -0.32800
C883        C  0.23738701  0.46828204  0.24412702     0.36500
C884        C  0.25202672  0.98887867  0.23399520    -0.05700
C885        C  0.26978794  0.01282704  0.24017310    -0.32700
C886        C  0.27363213  0.01588926  0.25610691     0.36400
H887        H  0.22902198  0.45596427  0.26770419     0.16700
O888        O  0.21904972  0.44522975  0.23858196    -0.60200
H889        H  0.28121455  0.02892979  0.23260194     0.16800
O890        O  0.29128072  0.03941136  0.26171140    -0.60300
H891        H  0.27666065  0.05625832  0.26391262     0.43700
H892        H  0.23211388  0.42662793  0.23863882     0.43700
C893        C  0.28206829  0.49899810  0.39096344    -0.05400
C894        C  0.25357469  0.99472227  0.38374799    -0.32800
C895        C  0.25071598  0.99595324  0.36775858     0.36500
C896        C  0.27669699  0.00152009  0.35844885    -0.05700
C897        C  0.30534287  0.50550426  0.36562271    -0.32700
C898        C  0.30818569  0.50423009  0.38169344     0.36400
H899        H  0.23318628  0.99028117  0.39052291     0.16700
O900        O  0.22242201  0.99068485  0.36138012    -0.60200
H901        H  0.32566722  0.50974552  0.35876973     0.16800
O902        O  0.33649834  0.50883232  0.38816812    -0.60300
H903        H  0.34621484  0.48828375  0.38842256     0.43700
H904        H  0.21167655  0.01071902  0.36177824     0.43700
C905        C  0.98975602  0.25968155  0.26576080    -0.05400
C906        C  0.01240740  0.24316690  0.25779657    -0.32800
C907        C  0.01519243  0.24569398  0.24178829     0.36500
C908        C  0.99571022  0.26557241  0.23355082    -0.05700
C909        C  0.47379598  0.28289009  0.24156521    -0.32700
C910        C  0.47036267  0.27967030  0.25749956     0.36400
H911        H  0.02760899  0.22782742  0.26396891     0.16700
O912        O  0.03716270  0.22879440  0.23431498    -0.60200
H913        H  0.45876143  0.29841124  0.23539795     0.16800
O914        O  0.44870479  0.29698244  0.26497173    -0.60300
H915        H  0.42918367  0.28554215  0.26375500     0.43700
H916        H  0.05498530  0.24277024  0.23320844     0.43700
C917        C  0.97247794  0.24905358  0.35798117    -0.05400
C918        C  0.99886080  0.24413311  0.36690264    -0.32800
C919        C  0.99728251  0.24266256  0.38293884     0.36500
C920        C  0.96889970  0.24653232  0.39057604    -0.05700
C921        C  0.44235008  0.25098758  0.38166770    -0.32700
C922        C  0.44395064  0.25235965  0.36555482     0.36400
H923        H  0.02101760  0.24124645  0.36143608     0.16700
O924        O  0.02386230  0.23760584  0.39098977    -0.60200
H925        H  0.42026347  0.25392250  0.38719722     0.16800
O926        O  0.41746196  0.25713624  0.35738990    -0.60300
H927        H  0.41525444  0.27973954  0.35672838     0.43700
H928        H  0.02530734  0.21499693  0.39207965     0.43700
C929        C  0.48152243  0.34550172  0.31252271    -0.05400
C930        C  0.00934449  0.36117669  0.31477331    -0.32800
C931        C  0.01047387  0.39326630  0.31472788     0.36500
C932        C  0.48342756  0.41046685  0.31237817    -0.05700
C933        C  0.45565435  0.39478156  0.31002070    -0.32700
C934        C  0.45455736  0.36271505  0.30996375     0.36400
H935        H  0.03044063  0.34854889  0.31662855     0.16700
O936        O  0.03823458  0.40744233  0.31689705    -0.60200
H937        H  0.43457941  0.40738726  0.30806513     0.16800
O938        O  0.42692510  0.34857282  0.30736393    -0.60300
H939        H  0.42566475  0.34610250  0.29605058     0.43700
H940        H  0.04033251  0.40965390  0.32819053     0.43700
C941        C  0.48299648  0.09549334  0.31131221    -0.05400
C942        C  0.45618869  0.11115628  0.30693237    -0.32800
C943        C  0.45512749  0.14327613  0.30669300     0.36500
C944        C  0.48128245  0.16051765  0.31078481    -0.05700
C945        C  0.00807792  0.14483988  0.31518005    -0.32700
C946        C  0.00911913  0.11274703  0.31546129     0.36400
H947        H  0.43585933  0.09848431  0.30361254     0.16700
O948        O  0.42856099  0.15746065  0.30211123    -0.60200
H949        H  0.02838298  0.15747695  0.31857253     0.16800
O950        O  0.03555216  0.09860602  0.32027656    -0.60300
H951        H  0.04895122  0.09781904  0.31106893     0.43700
H952        H  0.41550370  0.15829280  0.31144106     0.43700
C953        C  0.99519145  0.49207272  0.23360297    -0.05400
C954        C  0.47548744  0.47300799  0.24204835    -0.32800
C955        C  0.47267355  0.47625338  0.25798536     0.36500
C956        C  0.99049785  0.49814241  0.26585577    -0.05700
C957        C  0.01090822  0.01668830  0.25749394    -0.32700
C958        C  0.01287607  0.01420202  0.24142386     0.36400
H959        H  0.46179069  0.45582497  0.23622441     0.16700
O960        O  0.45339918  0.45697107  0.26587306    -0.60200
H961        H  0.02495081  0.03346590  0.26340070     0.16800
O962        O  0.03302333  0.03259039  0.23355092    -0.60300
H963        H  0.02194936  0.05217564  0.23193385     0.43700
H964        H  0.43279364  0.46641085  0.26500937     0.43700
C965        C  0.96989105  0.49996780  0.39086603    -0.05400
C966        C  0.99888029  0.99816687  0.38381411    -0.32800
C967        C  0.00211100  0.99954963  0.36781755     0.36500
C968        C  0.97602506  0.50265292  0.35831864    -0.05700
C969        C  0.44697229  0.50456498  0.36534568    -0.32700
C970        C  0.44375706  0.50320368  0.38140114     0.36400
H971        H  0.01939246  0.99562243  0.39072700     0.16700
O972        O  0.03098382  0.99720638  0.36164280    -0.60200
H973        H  0.42652444  0.50706366  0.35838066     0.16800
O974        O  0.41497230  0.50559063  0.38766037    -0.60300
H975        H  0.40679497  0.48432499  0.38776785     0.43700
H976        H  0.03918566  0.01838615  0.36162420     0.43700
C977        C  0.25179058  0.28367878  0.85876409    -0.05400
C978        C  0.24858988  0.25707507  0.86773085    -0.32800
C979        C  0.24903964  0.25832826  0.88377420     0.36500
C980        C  0.25232569  0.28674299  0.89141245    -0.05700
C981        C  0.25584617  0.31345393  0.88248224    -0.32700
C982        C  0.25568102  0.31210377  0.86633604     0.36400
H983        H  0.24572649  0.23489388  0.86230315     0.16700
O984        O  0.24570357  0.23146634  0.89182228    -0.60200
H985        H  0.25882887  0.33552440  0.88800848     0.16800
O986        O  0.25994585  0.33864622  0.85814751    -0.60300
H987        H  0.23906374  0.34709231  0.85658858     0.43700
H988        H  0.26668092  0.22277101  0.89257118     0.43700
C989        C  0.25221386  0.96082131  0.89096602    -0.05400
C990        C  0.24441537  0.43471146  0.88229909    -0.32800
C991        C  0.24385854  0.43573170  0.86616153     0.36500
C992        C  0.25156603  0.96308640  0.85836145    -0.05700
C993        C  0.25996005  0.98889016  0.86706060    -0.32700
C994        C  0.26026559  0.98799918  0.88311499     0.36400
H995        H  0.23813790  0.41355097  0.88803483     0.16700
O996        O  0.23541489  0.40995480  0.85819246    -0.60200
H997        H  0.26642700  0.01007782  0.86140437     0.16800
O998        O  0.26929360  0.01373665  0.89097649    -0.60300
H999        H  0.25080475  0.02699615  0.89142988     0.43700
H1000       H  0.21280918  0.41128169  0.85722517     0.43700
C1001       C  0.34459956  0.27512565  0.81289848    -0.05400
C1002       C  0.36063212  0.30305293  0.81215599    -0.32800
C1003       C  0.39276165  0.30363747  0.81197449     0.36500
C1004       C  0.40954979  0.27589743  0.81241384    -0.05700
C1005       C  0.39347210  0.24804968  0.81317684    -0.32700
C1006       C  0.36144130  0.24745223  0.81335426     0.36400
H1007       H  0.34827106  0.32461621  0.81176953     0.16700
O1008       O  0.40737133  0.33148261  0.81126312    -0.60200
H1009       H  0.40574090  0.22643419  0.81351456     0.16800
O1010       O  0.34695508  0.21953827  0.81396673    -0.60300
H1011       H  0.34429739  0.21326435  0.80309947     0.43700
H1012       H  0.40976740  0.33805823  0.82209998     0.43700
C1013       C  0.09454582  0.27362931  0.81085556    -0.05400
C1014       C  0.11063180  0.24568735  0.81061798    -0.32800
C1015       C  0.14279094  0.24504876  0.81084765     0.36500
C1016       C  0.15963414  0.27273576  0.81131084    -0.05700
C1017       C  0.14352172  0.30064421  0.81134848    -0.32700
C1018       C  0.11144596  0.30130368  0.81104816     0.36400
H1019       H  0.09827960  0.22412515  0.81030031     0.16700
O1020       O  0.15740237  0.21718636  0.81036799    -0.60200
H1021       H  0.15579581  0.32225400  0.81166633     0.16800
O1022       O  0.09697647  0.32926125  0.81124856    -0.60300
H1023       H  0.09588417  0.33573152  0.80033973     0.43700
H1024       H  0.15812249  0.21006988  0.82118288     0.43700
C1025       C  0.00192105  0.28564163  0.89039810    -0.05400
C1026       C  0.00319670  0.25694283  0.88310021    -0.32800
C1027       C  0.00326874  0.25450803  0.86708721     0.36500
C1028       C  0.00230064  0.28116125  0.85782846    -0.05700
C1029       C  0.50075695  0.30992746  0.86509600    -0.32700
C1030       C  0.50064910  0.31230984  0.88118767     0.36400
H1031       H  0.00416780  0.23603920  0.88982504     0.16700
O1032       O  0.00468242  0.22578764  0.86068004    -0.60200
H1033       H  0.49969892  0.33074245  0.85830598     0.16800
O1034       O  0.49892539  0.34084240  0.88773506    -0.60300
H1035       H  0.52048199  0.34799207  0.88848375     0.43700
H1036       H  0.98306197  0.21878914  0.86001104     0.43700
C1037       C  0.34344644  0.47235803  0.81181489    -0.05400
C1038       C  0.35874867  0.00039594  0.81403685    -0.32800
C1039       C  0.39080054  0.00194562  0.81416783     0.36500
C1040       C  0.40838435  0.97510165  0.81203423    -0.05700
C1041       C  0.39307715  0.44713585  0.80952420    -0.32700
C1042       C  0.36100722  0.44562618  0.80929664     0.36400
H1043       H  0.34584991  0.02135635  0.81580279     0.16700
O1044       O  0.40455819  0.02993738  0.81625204    -0.60200
H1045       H  0.40597707  0.42620401  0.80767196     0.16800
O1046       O  0.34721282  0.41783450  0.80665706    -0.60300
H1047       H  0.34556462  0.41621242  0.79531783     0.43700
H1048       H  0.40590929  0.03261145  0.82754776     0.43700
C1049       C  0.09342982  0.97531696  0.81143562    -0.05400
C1050       C  0.10870611  0.44695976  0.81026597    -0.32800
C1051       C  0.14078448  0.44525951  0.81035652     0.36500
C1052       C  0.15843116  0.47227115  0.81161654    -0.05700
C1053       C  0.14315169  0.00063846  0.81265754    -0.32700
C1054       C  0.11108330  0.00234995  0.81248065     0.36400
H1055       H  0.09576974  0.42581627  0.80932502     0.16700
O1056       O  0.15450400  0.41704038  0.80907940    -0.60200
H1057       H  0.15608584  0.02178442  0.81357831     0.16800
O1058       O  0.09737709  0.03059865  0.81357110    -0.60300
H1059       H  0.09598288  0.03820952  0.80285547     0.43700
H1060       H  0.15538001  0.40887718  0.81969333     0.43700
C1061       C  0.00048087  0.46214232  0.89087228    -0.05400
C1062       C  0.50469488  0.99098879  0.88394342    -0.32800
C1063       C  0.50561885  0.99418581  0.86794800     0.36500
C1064       C  0.00191792  0.46826485  0.85838241    -0.05700
C1065       C  0.99803716  0.43935492  0.86530232    -0.32700
C1066       C  0.99724854  0.43617880  0.88133707     0.36400
H1067       H  0.50748967  0.01134072  0.89094880     0.16700
O1068       O  0.50996330  0.02290064  0.86186232    -0.60200
H1069       H  0.99528667  0.41903529  0.85827108     0.16800
O1070       O  0.99327801  0.40753114  0.88751328    -0.60300
H1071       H  0.97074078  0.40466844  0.88817106     0.43700
H1072       H  0.53253534  0.02527491  0.86098137     0.43700
C1073       C  0.26208689  0.25650865  0.73446788    -0.05400
C1074       C  0.23774373  0.27353745  0.74078562    -0.32800
C1075       C  0.23516610  0.27765271  0.75670368     0.36500
C1076       C  0.25648894  0.26378902  0.76663694    -0.05700
C1077       C  0.28048585  0.24623633  0.76040864    -0.32700
C1078       C  0.28364115  0.24288045  0.74445003     0.36400
H1079       H  0.22091391  0.28418996  0.73333225     0.16700
O1080       O  0.21105962  0.29428817  0.76248188    -0.60200
H1081       H  0.29714939  0.23554077  0.76794500     0.16800
O1082       O  0.30771327  0.22606793  0.73876745    -0.60300
H1083       H  0.29976904  0.20483312  0.73779899     0.43700
H1084       H  0.21788425  0.31598149  0.76210373     0.43700
C1085       C  0.27300547  0.24826889  0.64184697    -0.05400
C1086       C  0.30181944  0.24648173  0.63462370    -0.32800
C1087       C  0.30451070  0.24680648  0.61856005     0.36500
C1088       C  0.27805893  0.24884184  0.60923439    -0.05700
C1089       C  0.24921204  0.25046174  0.61645702    -0.32700
C1090       C  0.24651417  0.25009630  0.63252099     0.36400
H1091       H  0.32254209  0.24485595  0.64144780     0.16700
O1092       O  0.33318340  0.24454247  0.61215491    -0.60200
H1093       H  0.22848312  0.25209184  0.60963653     0.16800
O1094       O  0.21781799  0.25224352  0.63891917    -0.60300
H1095       H  0.21002202  0.23088012  0.63931567     0.43700
H1096       H  0.34121772  0.26581169  0.61192969     0.43700
C1097       C  0.27000020  0.40804928  0.68695498    -0.05400
C1098       C  0.24202259  0.39237905  0.68529078    -0.32800
C1099       C  0.24089987  0.36029201  0.68533848     0.36500
C1100       C  0.26816317  0.34307233  0.68692852    -0.05700
C1101       C  0.29615508  0.35875735  0.68850728    -0.32700
C1102       C  0.29726731  0.39082704  0.68852305     0.36400
H1103       H  0.22075012  0.40500879  0.68404094     0.16700
O1104       O  0.21297903  0.34613611  0.68371856    -0.60200
H1105       H  0.31742199  0.34615650  0.68985340     0.16800
O1106       O  0.32511173  0.40496143  0.69050170    -0.60300
H1107       H  0.33423178  0.40614919  0.68007891     0.43700
H1108       H  0.20445872  0.34484338  0.69426589     0.43700
C1109       C  0.27031004  0.09300840  0.69001675    -0.05400
C1110       C  0.24212925  0.10870529  0.69007914    -0.32800
C1111       C  0.24096599  0.14079285  0.69005163     0.36500
C1112       C  0.26835570  0.15806806  0.68986922    -0.05700
C1113       C  0.29656991  0.14238269  0.68992684    -0.32700
C1114       C  0.29773028  0.11026580  0.68992953     0.36400
H1115       H  0.22071264  0.09608340  0.69011551     0.16700
O1116       O  0.21282611  0.15489412  0.68993783    -0.60200
H1117       H  0.31797880  0.15501897  0.68980446     0.16800
O1118       O  0.32585669  0.09612427  0.68979488    -0.60300
H1119       H  0.33140649  0.09428396  0.67878164     0.43700
H1120       H  0.20691161  0.15675614  0.70089886     0.43700
C1121       C  0.26293140  0.99219111  0.73449484    -0.05400
C1122       C  0.23762410  0.00472168  0.74231893    -0.32800
C1123       C  0.23371383  0.99992945  0.75812440     0.36500
C1124       C  0.25477016  0.98166934  0.76628037    -0.05700
C1125       C  0.27971281  0.46862962  0.75847395    -0.32700
C1126       C  0.28422021  0.47422096  0.74276874     0.36400
H1127       H  0.22096026  0.01852505  0.73618449     0.16700
O1128       O  0.20915186  0.01304591  0.76548501    -0.60200
H1129       H  0.29620877  0.45471365  0.76466739     0.16800
O1130       O  0.30889156  0.46108223  0.73551989    -0.60300
H1131       H  0.32622790  0.47537246  0.73733268     0.43700
H1132       H  0.19306829  0.99695194  0.76563774     0.43700
C1133       C  0.28119671  0.50046164  0.60952023    -0.05400
C1134       C  0.25240933  0.00192065  0.61678492    -0.32800
C1135       C  0.24985382  0.00329494  0.63280534     0.36500
C1136       C  0.27641958  0.50292859  0.64210824    -0.05700
C1137       C  0.30527861  0.50188169  0.63486434    -0.32700
C1138       C  0.30782354  0.50059837  0.61878398     0.36400
H1139       H  0.23154221  0.00204456  0.61002307     0.16700
O1140       O  0.22109237  0.00456130  0.63918622    -0.60200
H1141       H  0.32607632  0.50173435  0.64167917     0.16800
O1142       O  0.33650962  0.49973099  0.61230872    -0.60300
H1143       H  0.34222019  0.47771549  0.61211189     0.43700
H1144       H  0.21617121  0.02673139  0.63989080     0.43700
C1145       C  0.99152209  0.25633688  0.73363105    -0.05400
C1146       C  0.01265012  0.27772787  0.73946990    -0.32800
C1147       C  0.01555799  0.28233783  0.75535138     0.36500
C1148       C  0.99788740  0.26472905  0.76562321    -0.05700
C1149       C  0.47751307  0.24266004  0.75976833    -0.32700
C1150       C  0.47404819  0.23859772  0.74392027     0.36400
H1151       H  0.02647416  0.29136299  0.73168555     0.16700
O1152       O  0.03652338  0.30320759  0.76072337    -0.60200
H1153       H  0.46384901  0.22880486  0.76752811     0.16800
O1154       O  0.45376089  0.21699575  0.73861549    -0.60300
H1155       H  0.46622258  0.19831010  0.73687531     0.43700
H1156       H  0.02587696  0.32327321  0.76035535     0.43700
C1157       C  0.97282715  0.24708065  0.64158685    -0.05400
C1158       C  0.44392807  0.24464601  0.63446744    -0.32800
C1159       C  0.44102218  0.24589244  0.61837733     0.36500
C1160       C  0.96727271  0.25001293  0.60904433    -0.05700
C1161       C  0.99607151  0.25211966  0.61620476    -0.32700
C1162       C  0.99900782  0.25082276  0.63218365     0.36400
H1163       H  0.42344601  0.24175423  0.64137828     0.16700
O1164       O  0.41238422  0.24331693  0.61197654    -0.60200
H1165       H  0.01667414  0.25513177  0.60939712     0.16800
O1166       O  0.02777561  0.25353005  0.63843046    -0.60300
H1167       H  0.03105189  0.27589479  0.63973927     0.43700
H1168       H  0.40908649  0.22098278  0.61059030     0.43700
C1169       C  0.47965190  0.34163821  0.68615727    -0.05400
C1170       C  0.50385204  0.35769061  0.67916209    -0.32800
C1171       C  0.50437257  0.38981896  0.67900828     0.36500
C1172       C  0.98036258  0.40660700  0.68591103    -0.05700
C1173       C  0.95595622  0.39056762  0.69273953    -0.32700
C1174       C  0.95545298  0.35843700  0.69292061     0.36400
H1175       H  0.52249186  0.34530499  0.67373259     0.16700
O1176       O  0.52806293  0.40452770  0.67168824    -0.60200
H1177       H  0.93743549  0.40295616  0.69827117     0.16800
O1178       O  0.93189371  0.34378318  0.70037730    -0.60300
H1179       H  0.91480842  0.34313705  0.69285733     0.43700
H1180       H  0.54508334  0.40487608  0.67922946     0.43700
C1181       C  0.98348212  0.09149235  0.69101566    -0.05400
C1182       C  0.45552656  0.10753097  0.69062354    -0.32800
C1183       C  0.45475663  0.13961858  0.69038967     0.36500
C1184       C  0.48235336  0.15665302  0.69059351    -0.05700
C1185       C  0.01031994  0.14065632  0.69154902    -0.32700
C1186       C  0.01105133  0.10846693  0.69186723     0.36400
H1187       H  0.43396574  0.09518251  0.69020396     0.16700
O1188       O  0.42674732  0.15396069  0.68988444    -0.60200
H1189       H  0.03182230  0.15310294  0.69195273     0.16800
O1190       O  0.03892868  0.09396404  0.69274981    -0.60300
H1191       H  0.04310399  0.09180159  0.70389573     0.43700
H1192       H  0.42137690  0.15502748  0.67882781     0.43700
C1193       C  0.49022634  0.99167676  0.73413595    -0.05400
C1194       C  0.01286023  0.47215752  0.74021313    -0.32800
C1195       C  0.01580231  0.46814032  0.75612368     0.36500
C1196       C  0.99667205  0.48458807  0.76620204    -0.05700
C1197       C  0.47443984  0.00452283  0.76015714    -0.32700
C1198       C  0.47087328  0.00786080  0.74426023     0.36400
H1199       H  0.02797504  0.45957251  0.73259243     0.16700
O1200       O  0.03821363  0.44907422  0.76172388    -0.60200
H1201       H  0.45946289  0.01722042  0.76780434     0.16800
O1202       O  0.44865473  0.02726604  0.73875758    -0.60300
H1203       H  0.45888393  0.04748594  0.73771599     0.43700
H1204       H  0.02905165  0.42824902  0.76155549     0.43700
C1205       C  0.47419780  0.00297926  0.64193212    -0.05400
C1206       C  0.44510815  0.00519462  0.63500019    -0.32800
C1207       C  0.44187499  0.00565369  0.61893987     0.36500
C1208       C  0.96801195  0.50371238  0.60937809    -0.05700
C1209       C  0.99704991  0.50144333  0.61633970    -0.32700
C1210       C  0.00028904  0.50092365  0.63234570     0.36400
H1211       H  0.42465388  0.00661731  0.64204455     0.16700
O1212       O  0.41297913  0.00759746  0.61278028    -0.60200
H1213       H  0.01756541  0.49983751  0.60934966     0.16800
O1214       O  0.02921399  0.49834676  0.63842654    -0.60300
H1215       H  0.03303265  0.47597014  0.63924626     0.43700
H1216       H  0.40838994  0.02985262  0.61228662     0.43700
O1217       O  0.01054609  0.99404752  0.70873836    -0.71700
O1218       O  0.00294698  0.50267223  0.66547579    -0.71900
O1219       O  0.00775384  0.54202423  0.68924254    -0.71700
O1220       O  0.00571789  0.95524601  0.68503298    -0.71800
O1221       O  0.45647359  0.95572401  0.68875884    -0.71700
O1222       O  0.45801882  0.54287425  0.68999595    -0.71700
O1223       O  0.45340375  0.00058758  0.66751036    -0.71700
O1224       O  0.46107631  0.49803339  0.71108847    -0.71900
V1225       V  0.00578974  0.49858289  0.68716149     1.35200
V1226       V  0.45816176  0.49931655  0.68928443     1.35200
C1227       C  0.48712357  0.49484346  0.71730548     0.77600
C1228       C  0.47695282  0.50216442  0.65900688     0.77600
C1229       C  0.98317400  0.55739207  0.69013260     0.77500
C1230       C  0.98085230  0.94058989  0.68650065     0.77500
O1231       O  0.46148133  0.74960282  0.71090591    -0.71700
O1232       O  0.45217891  0.74836562  0.66730742    -0.71900
O1233       O  0.45724700  0.70548233  0.68953071    -0.71700
O1234       O  0.45603449  0.79241914  0.68892420    -0.71800
O1235       O  0.00505593  0.79301179  0.68453922    -0.71700
O1236       O  0.00696572  0.70595175  0.68865349    -0.71700
O1237       O  0.00163416  0.74558449  0.66499702    -0.71700
O1238       O  0.01083045  0.75401014  0.70809221    -0.71900
V1239       V  0.45764984  0.74893595  0.68910430     1.35200
V1240       V  0.00519051  0.74953340  0.68660216     1.35200
C1241       C  0.98776816  0.75300538  0.71686605     0.77600
C1242       C  0.97555520  0.74676531  0.65866677     0.77600
C1243       C  0.48222858  0.69075943  0.68959012     0.77500
C1244       C  0.48024743  0.80763231  0.68651784     0.77500
O1245       O  0.29813599  0.50306187  0.66753648    -0.71700
O1246       O  0.29186405  0.99698503  0.71113885    -0.71900
O1247       O  0.29503562  0.95691057  0.68797027    -0.71700
O1248       O  0.29513407  0.54381226  0.69075847    -0.71800
O1249       O  0.24563628  0.54415053  0.68819763    -0.71700
O1250       O  0.24530441  0.95707611  0.68706976    -0.71700
O1251       O  0.24222456  0.49932701  0.70938163    -0.71700
O1252       O  0.24852296  0.00171419  0.66588324    -0.71900
V1253       V  0.29410618  0.00030335  0.68932666     1.35200
V1254       V  0.24639547  0.00061954  0.68766321     1.35200
C1255       C  0.27429273  0.00274670  0.65921159     0.77600
C1256       C  0.26588956  0.99661549  0.71766805     0.77600
C1257       C  0.27016254  0.94207065  0.68730267     0.77500
C1258       C  0.27044125  0.55892702  0.68969489     0.77500
O1259       O  0.24057239  0.75344659  0.70932042    -0.71700
O1260       O  0.24552931  0.74814777  0.66581052    -0.71900
O1261       O  0.24315863  0.70706441  0.68886880    -0.71700
O1262       O  0.24318227  0.79406281  0.68632083    -0.71800
O1263       O  0.29273711  0.79415363  0.68858707    -0.71700
O1264       O  0.29290476  0.70712228  0.68943433    -0.71700
O1265       O  0.29517696  0.74983019  0.66712856    -0.71700
O1266       O  0.29026108  0.75150280  0.71087886    -0.71900
V1267       V  0.24407910  0.75060197  0.68760951     1.35200
V1268       V  0.29182815  0.75063274  0.68897484     1.35200
C1269       C  0.26449259  0.75346540  0.71753996     0.77600
C1270       C  0.27113310  0.74867292  0.65896298     0.77600
C1271       C  0.26805519  0.69214761  0.68941006     0.77500
C1272       C  0.26795746  0.80903748  0.68724589     0.77500
O1273       O  0.49870341  0.50468328  0.79152776    -0.71700
O1274       O  0.00249376  0.49700773  0.83488563    -0.71900
O1275       O  0.04445761  0.50085311  0.81232865    -0.71700
O1276       O  0.45720083  0.50040595  0.81397155    -0.71800
O1277       O  0.45750552  0.95106676  0.81074531    -0.71700
O1278       O  0.04437078  0.95114498  0.81119780    -0.71700
O1279       O  0.50053780  0.94747109  0.83282928    -0.71700
O1280       O  0.00138972  0.95510267  0.78922261    -0.71900
V1281       V  0.00078823  0.49979498  0.81314760     1.35200
V1282       V  0.00095865  0.95214748  0.81105401     1.35200
C1283       C  0.99932864  0.98126240  0.78299459     0.77600
C1284       C  0.00171830  0.97102391  0.84133472     0.77600
C1285       C  0.05936051  0.47593535  0.81164613     0.77500
C1286       C  0.44241861  0.47564422  0.81228989     0.77500
O1287       O  0.50291580  0.79480991  0.78857402    -0.71700
O1288       O  0.00156292  0.80271773  0.83229818    -0.71900
O1289       O  0.04566913  0.79853249  0.81073172    -0.71700
O1290       O  0.45883125  0.79965146  0.81011020    -0.71800
O1291       O  0.45811037  0.75041221  0.81371950    -0.71700
O1292       O  0.04531530  0.74881182  0.81154853    -0.71700
O1293       O  0.50374107  0.75318436  0.83424351    -0.71700
O1294       O  0.99912938  0.74535048  0.79105846    -0.71900
V1295       V  0.00226854  0.79801299  0.81046146     1.35200
V1296       V  0.00165006  0.75039577  0.81260010     1.35200
C1297       C  0.00036830  0.76858026  0.78242501     0.77600
C1298       C  0.00260013  0.77903694  0.84075606     0.77600
C1299       C  0.06044954  0.77361557  0.81102266     0.77500
C1300       C  0.44355168  0.77534985  0.81207527     0.77500
O1301       O  0.24955835  0.94235387  0.83268371    -0.71700
O1302       O  0.25308177  0.95129665  0.78911660    -0.71900
O1303       O  0.29466174  0.94677412  0.81157635    -0.71700
O1304       O  0.20742269  0.94694050  0.81009362    -0.71800
O1305       O  0.20747492  0.49613185  0.81384814    -0.71700
O1306       O  0.29435399  0.49648231  0.81281321    -0.71700
O1307       O  0.24986277  0.50079821  0.79169744    -0.71700
O1308       O  0.25203279  0.49183942  0.83502528    -0.71900
V1309       V  0.25108561  0.94773001  0.81092152     1.35200
V1310       V  0.25090678  0.49531902  0.81331646     1.35200
C1311       C  0.25092875  0.46569487  0.84131969     0.77600
C1312       C  0.25212539  0.47766489  0.78303787     0.77600
C1313       C  0.30943268  0.97173872  0.81207444     0.77500
C1314       C  0.19250028  0.97162004  0.81186972     0.77500
O1315       O  0.25024780  0.75446123  0.83552970    -0.71700
O1316       O  0.25543489  0.74463565  0.79225646    -0.71900
O1317       O  0.29587354  0.75046465  0.81504564    -0.71700
O1318       O  0.20907758  0.74861569  0.81268730    -0.71800
O1319       O  0.20825603  0.79829859  0.81136580    -0.71700
O1320       O  0.29547207  0.79952065  0.81086153    -0.71700
O1321       O  0.25138550  0.79400661  0.78938781    -0.71700
O1322       O  0.25243210  0.80389067  0.83292614    -0.71900
V1323       V  0.25255982  0.75051521  0.81384353     1.35200
V1324       V  0.25185644  0.79803199  0.81119035     1.35200
C1325       C  0.25142366  0.78073011  0.84170131     0.77600
C1326       C  0.25417144  0.76765001  0.78344456     0.77600
C1327       C  0.31059377  0.77508263  0.81297752     0.77500
C1328       C  0.19371635  0.77316577  0.81179721     0.77500
O1329       O  0.45508118  0.50423265  0.33277796    -0.71700
O1330       O  0.46204650  0.00089784  0.28921992    -0.71900
O1331       O  0.45866352  0.95933625  0.31170349    -0.71700
O1332       O  0.45852330  0.54638214  0.31017175    -0.71800
O1333       O  0.00797218  0.54660397  0.31300158    -0.71700
O1334       O  0.00838847  0.95950850  0.31278867    -0.71700
O1335       O  0.01170878  0.50327257  0.29106252    -0.71700
O1336       O  0.00465641  0.00274133  0.33467499    -0.71900
V1337       V  0.45953437  0.00281327  0.31100387     1.35200
V1338       V  0.00722852  0.00306830  0.31285064     1.35200
C1339       C  0.97871515  0.00335693  0.34122537     0.77600
C1340       C  0.98802422  0.00118726  0.28273016     0.77600
C1341       C  0.48357489  0.94449455  0.31230546     0.77500
C1342       C  0.48321015  0.56143255  0.31151246     0.77500
O1343       O  0.45211269  0.75057835  0.33230359    -0.71700
O1344       O  0.46047829  0.75623657  0.28889251    -0.68700
O1345       O  0.45644112  0.70964601  0.30930463    -0.71700
O1346       O  0.45635418  0.79664432  0.31181013    -0.71800
O1347       O  0.00604449  0.79644359  0.31321704    -0.71700
O1348       O  0.00577119  0.70940584  0.31261207    -0.71700
O1349       O  0.01005569  0.75370532  0.29112223    -0.71700
O1350       O  0.00162970  0.75208830  0.33466282    -0.71900
V1351       V  0.45730047  0.75319821  0.31062202     1.35200
V1352       V  0.00492610  0.75290750  0.31286438     1.35200
C1353       C  0.97544025  0.75068572  0.34094892     0.77600
C1354       C  0.98665451  0.75624447  0.28261071     0.77600
C1355       C  0.48108688  0.69458533  0.31082628     0.77500
C1356       C  0.48124077  0.81147243  0.31256677     0.77500
O1357       O  0.29762708  0.00145145  0.33282656    -0.71700
O1358       O  0.28904751  0.50082259  0.28913883    -0.71900
O1359       O  0.29286369  0.54468357  0.31079926    -0.71700
O1360       O  0.29413708  0.95764295  0.31123458    -0.71800
O1361       O  0.24496669  0.95705293  0.31507396    -0.71700
O1362       O  0.24313053  0.54401722  0.31173469    -0.71700
O1363       O  0.23962522  0.99677829  0.29174401    -0.71700
O1364       O  0.24810400  0.50354934  0.33499487    -0.71900
V1365       V  0.29250357  0.50117124  0.31102533     1.35200
V1366       V  0.24491326  0.50046555  0.31333248     1.35200
C1367       C  0.27411788  0.50240771  0.34139150     0.77600
C1368       C  0.26281188  0.49786632  0.28304213     0.77600
C1369       C  0.26779646  0.55929891  0.31098689     0.77500
C1370       C  0.26987322  0.94242975  0.31356980     0.77500
O1371       O  0.24061409  0.75185308  0.29140993    -0.71700
O1372       O  0.24776339  0.74989596  0.33493578    -0.71900
O1373       O  0.24406401  0.79440724  0.31379905    -0.71700
O1374       O  0.24427017  0.70728165  0.31262297    -0.71800
O1375       O  0.29372469  0.70764529  0.30975699    -0.71700
O1376       O  0.29378548  0.79457453  0.31265655    -0.71700
O1377       O  0.29735752  0.74825661  0.33285854    -0.71700
O1378       O  0.29025297  0.75434684  0.28943666    -0.71900
V1379       V  0.24512374  0.75085078  0.31314296     1.35200
V1380       V  0.29281721  0.75114194  0.31119642     1.35200
C1381       C  0.26422554  0.75393886  0.28301662     0.77600
C1382       C  0.27380612  0.74869228  0.34134456     0.77600
C1383       C  0.26891433  0.80940163  0.31368034     0.77500
C1384       C  0.26905458  0.69252810  0.31096803     0.77500
O1385       O  0.43895911  0.49630216  0.45881099    -0.71700
O1386       O  0.44230611  0.99873789  0.41495834    -0.71900
O1387       O  0.44150827  0.95385156  0.43626531    -0.71700
O1388       O  0.43965712  0.54089150  0.43752742    -0.71800
O1389       O  0.98944292  0.54182226  0.43751875    -0.71700
O1390       O  0.99113326  0.95470409  0.43805624    -0.71700
O1391       O  0.99200522  0.49792892  0.41601073    -0.71700
O1392       O  0.98862241  0.99901720  0.45959713    -0.71900
V1393       V  0.44154185  0.99739642  0.43690235     1.35200
V1394       V  0.98932177  0.99828836  0.43778619     1.35200
C1395       C  0.96330848  0.99821162  0.46670592     0.77600
C1396       C  0.96783151  0.99877127  0.40797384     0.77600
C1397       C  0.46660455  0.93932654  0.43706184     0.77500
C1398       C  0.46425932  0.55625357  0.43761588     0.77500
O1399       O  0.43895899  0.74922527  0.45860806    -0.71700
O1400       O  0.44156012  0.74648674  0.41469923    -0.71900
O1401       O  0.43971206  0.70416131  0.43733040    -0.71700
O1402       O  0.44053239  0.79125970  0.43598507    -0.71800
O1403       O  0.99021173  0.79102758  0.43735090    -0.71700
O1404       O  0.98950725  0.70392841  0.43737671    -0.71700
O1405       O  0.99126471  0.74731802  0.41565425    -0.71700
O1406       O  0.98866895  0.74760713  0.45913511    -0.71900
V1407       V  0.44110034  0.74775489  0.43667112     1.35200
V1408       V  0.98890331  0.74744899  0.43737197     1.35200
C1409       C  0.96356893  0.74890709  0.46637938     0.77600
C1410       C  0.96706692  0.74666912  0.40767474     0.77600
C1411       C  0.46455000  0.68913533  0.43735007     0.77500
C1412       C  0.46544373  0.80609196  0.43656672     0.77500
O1413       O  0.30896691  0.49848777  0.41513325    -0.71700
O1414       O  0.31150551  0.99721944  0.45890521    -0.71900
O1415       O  0.31022303  0.95422576  0.43673213    -0.71700
O1416       O  0.31006868  0.54135827  0.43721893    -0.71800
O1417       O  0.26031403  0.54133884  0.43752208    -0.71700
O1418       O  0.26051140  0.95433806  0.43785978    -0.71700
O1419       O  0.26177501  0.49800823  0.45955465    -0.71700
O1420       O  0.25923909  0.99756049  0.41594348    -0.71900
V1421       V  0.30925018  0.99781960  0.43702462     1.35200
V1422       V  0.26144328  0.99780563  0.43772370     1.35200
C1423       C  0.28361858  0.99827143  0.40804304     0.77600
C1424       C  0.28702503  0.99744064  0.46673996     0.77600
C1425       C  0.28530420  0.93934900  0.43722441     0.77500
C1426       C  0.28516723  0.55628638  0.43721667     0.77500
O1427       O  0.26121302  0.74707990  0.45925149    -0.71700
O1428       O  0.25820422  0.74952453  0.41586585    -0.71900
O1429       O  0.25907169  0.70466875  0.43692549    -0.71700
O1430       O  0.26067597  0.79175536  0.43807046    -0.71800
O1431       O  0.31036975  0.79090461  0.43681044    -0.71700
O1432       O  0.30882753  0.70392148  0.43654260    -0.71700
O1433       O  0.30790297  0.74766633  0.41478327    -0.71700
O1434       O  0.31093387  0.74708174  0.45869383    -0.71900
V1435       V  0.26079964  0.74822255  0.43753231     1.35200
V1436       V  0.30859582  0.74740393  0.43673120     1.35200
C1437       C  0.28633125  0.74697413  0.46648575     0.77600
C1438       C  0.28234837  0.74897316  0.40785605     0.77600
C1439       C  0.28372677  0.68936931  0.43652930     0.77500
C1440       C  0.28579091  0.80626123  0.43743206     0.77500
O1441       O  0.99985440  0.93422078  0.04145045    -0.71700
O1442       O  0.49684611  0.93905557  0.08522885    -0.71900
O1443       O  0.45460275  0.93667312  0.06255292    -0.71700
O1444       O  0.04195461  0.93668258  0.06412334    -0.71800
O1445       O  0.04164505  0.48632999  0.06246539    -0.71700
O1446       O  0.45483301  0.48639501  0.06148751    -0.71700
O1447       O  0.99738255  0.48869761  0.08366402    -0.71700
O1448       O  0.49934257  0.48389798  0.04028601    -0.71900
V1449       V  0.49827621  0.93754571  0.06331779     1.35200
V1450       V  0.49827784  0.48529624  0.06200230     1.35200
C1451       C  0.50014846  0.45842122  0.03337693     0.77600
C1452       C  0.49705438  0.46486567  0.09192557     0.77600
C1453       C  0.43978439  0.96162720  0.06177777     0.77500
C1454       C  0.05672532  0.96166993  0.06347255     0.77500
O1455       O  0.49994478  0.81550733  0.04085223    -0.71700
O1456       O  0.00161715  0.81198671  0.08464293    -0.71900
O1457       O  0.04428805  0.81348475  0.06229720    -0.71700
O1458       O  0.45719633  0.81426541  0.06341587    -0.71800
O1459       O  0.45687352  0.76451869  0.06243667    -0.71700
O1460       O  0.04403497  0.76376859  0.06119683    -0.71700
O1461       O  0.50133732  0.76227973  0.08353545    -0.71700
O1462       O  0.99937357  0.76578373  0.04006499    -0.71900
V1463       V  0.00076708  0.81287552  0.06275709     1.35200
V1464       V  0.00041481  0.76508145  0.06181336     1.35200
C1465       C  0.99959367  0.79108645  0.03295992     0.77600
C1466       C  0.00142282  0.78643388  0.09157399     0.77600
C1467       C  0.05910090  0.78857354  0.06161403     0.77500
C1468       C  0.44214131  0.78946888  0.06339495     0.77500
O1469       O  0.25008905  0.94135674  0.08505995    -0.71700
O1470       O  0.24697812  0.93748510  0.04132161    -0.71900
O1471       O  0.29201690  0.93988982  0.06232483    -0.71700
O1472       O  0.20517313  0.93849166  0.06405875    -0.71800
O1473       O  0.20414407  0.48815827  0.06252692    -0.71700
O1474       O  0.29143971  0.48963813  0.06166056    -0.71700
O1475       O  0.24685013  0.48720775  0.04034890    -0.71700
O1476       O  0.24845806  0.49100994  0.08381198    -0.71900
V1477       V  0.24857886  0.94026443  0.06316781     1.35200
V1478       V  0.24776776  0.48803971  0.06210681     1.35200
C1479       C  0.24935160  0.46698007  0.09192408     0.77600
C1480       C  0.24637096  0.46181576  0.03335617     0.77600
C1481       C  0.30666358  0.96489104  0.06177644     0.77500
C1482       C  0.18974742  0.96300235  0.06355844     0.77500
O1483       O  0.24781575  0.76064375  0.08411782    -0.71700
O1484       O  0.25398139  0.76548831  0.04061840    -0.71900
O1485       O  0.29428702  0.76334958  0.06387281    -0.71700
O1486       O  0.20745372  0.76266857  0.06080866    -0.71800
O1487       O  0.20689070  0.81220484  0.06319904    -0.71700
O1488       O  0.29413636  0.81311715  0.06427660    -0.71700
O1489       O  0.25126714  0.81515371  0.04186964    -0.71700
O1490       O  0.24950375  0.81031772  0.08550034    -0.71900
V1491       V  0.25089641  0.76400438  0.06238311     1.35200
V1492       V  0.25046306  0.81176121  0.06367958     1.35200
C1493       C  0.24809468  0.78467326  0.09227646     0.77600
C1494       C  0.25302943  0.79110412  0.03378175     0.77600
C1495       C  0.30913792  0.78824166  0.06438884     0.77500
C1496       C  0.19224750  0.78730926  0.06166783     0.77500
O1497       O  0.49739354  0.50149855  0.16455161    -0.71700
O1498       O  0.99768536  0.51155862  0.20793460    -0.71900
O1499       O  0.04106123  0.50660207  0.18613302    -0.71700
O1500       O  0.45375229  0.50621460  0.18617296    -0.71800
O1501       O  0.45425029  0.95665300  0.18850604    -0.71700
O1502       O  0.04114386  0.95730088  0.18951347    -0.71700
O1503       O  0.49635768  0.96203730  0.21072089    -0.71700
O1504       O  0.99860775  0.95205832  0.16732294    -0.71900
V1505       V  0.99746438  0.50553670  0.18626447     1.35200
V1506       V  0.99764035  0.95799503  0.18897622     1.35200
C1507       C  0.99800558  0.97511283  0.15849461     0.77600
C1508       C  0.99673097  0.98846740  0.21672684     0.77600
C1509       C  0.05604838  0.48196532  0.18782084     0.77500
C1510       C  0.43908680  0.48120719  0.18718679     0.77500
O1511       O  0.50134577  0.79976967  0.16650810    -0.71700
O1512       O  0.99640484  0.79380602  0.21004810    -0.71900
O1513       O  0.04267998  0.79690251  0.18949277    -0.71700
O1514       O  0.45554729  0.79644057  0.18703742    -0.71800
O1515       O  0.45617024  0.74669893  0.18653562    -0.71700
O1516       O  0.04310797  0.74747234  0.18665846    -0.71700
O1517       O  0.49974396  0.74417066  0.20840397    -0.71700
O1518       O  0.99954375  0.75017338  0.16481234    -0.71900
V1519       V  0.99907761  0.79580495  0.18824468     1.35200
V1520       V  0.99963510  0.74809476  0.18663345     1.35200
C1521       C  0.00046715  0.77599850  0.15817556     0.77600
C1522       C  0.99753162  0.76796548  0.21664423     0.77600
C1523       C  0.05783979  0.77221816  0.18835218     0.77500
C1524       C  0.44093213  0.77137281  0.18650576     0.77500
O1525       O  0.24785867  0.95926046  0.21084742    -0.71700
O1526       O  0.24794917  0.95091643  0.16724365    -0.71900
O1527       O  0.29148013  0.95541092  0.18894788    -0.71700
O1528       O  0.20427017  0.95479756  0.18902456    -0.71800
O1529       O  0.20409248  0.50448317  0.18764558    -0.71700
O1530       O  0.29100777  0.50471701  0.18551491    -0.71700
O1531       O  0.24562150  0.50041000  0.16498583    -0.71700
O1532       O  0.24995966  0.50879261  0.20839744    -0.71900
V1533       V  0.24786180  0.95602428  0.18899223     1.35200
V1534       V  0.24759946  0.50363158  0.18670905     1.35200
C1535       C  0.24960333  0.48547037  0.21706019     0.77600
C1536       C  0.24677501  0.47431394  0.15864204     0.77600
C1537       C  0.30614563  0.98014474  0.18688548     0.77500
C1538       C  0.18923299  0.97958790  0.18834651     0.77500
O1539       O  0.25115230  0.74174920  0.20872609    -0.71700
O1540       O  0.24795860  0.74867348  0.16522147    -0.71900
O1541       O  0.29323116  0.74580894  0.18616267    -0.71700
O1542       O  0.20604163  0.74493013  0.18772784    -0.71800
O1543       O  0.20593538  0.79440917  0.19035499    -0.71700
O1544       O  0.29269237  0.79549835  0.18744374    -0.71700
O1545       O  0.24654394  0.79829306  0.16717509    -0.71700
O1546       O  0.25269580  0.79142592  0.21065454    -0.71900
V1547       V  0.24960232  0.74623552  0.18700466     1.35200
V1548       V  0.24938504  0.79393414  0.18888278     1.35200
C1549       C  0.25311326  0.76538517  0.21708310     0.77600
C1550       C  0.24658792  0.77462562  0.15875083     0.77600
C1551       C  0.30787665  0.77090401  0.18643315     0.77500
C1552       C  0.19104413  0.76959184  0.18927725     0.77500
O1553       O  0.49922083  0.48402350  0.91599756    -0.71700
O1554       O  0.00051546  0.48040008  0.95944258    -0.71900
O1555       O  0.04329849  0.48191168  0.93738213    -0.71700
O1556       O  0.45616231  0.48218457  0.93811637    -0.71800
O1557       O  0.45609192  0.93250852  0.93674898    -0.71700
O1558       O  0.04311212  0.93216531  0.93673518    -0.71700
O1559       O  0.49965578  0.93068142  0.95869143    -0.71700
O1560       O  0.99974451  0.93432397  0.91484395    -0.71900
V1561       V  0.99976120  0.48113625  0.93771584     1.35200
V1562       V  0.99961677  0.93335041  0.93677058     1.35200
C1563       C  0.99969047  0.95992299  0.90793176     0.77600
C1564       C  0.00037650  0.95512003  0.96656506     0.77600
C1565       C  0.05812526  0.45696199  0.93696138     0.77500
C1566       C  0.44117867  0.45733968  0.93753039     0.77500
O1567       O  0.50187550  0.81215412  0.91468825    -0.71700
O1568       O  0.00183876  0.81390378  0.95845182    -0.71900
O1569       O  0.04546077  0.81335422  0.93660714    -0.71700
O1570       O  0.45841154  0.81276392  0.93663443    -0.71800
O1571       O  0.45865592  0.76301534  0.93711207    -0.71700
O1572       O  0.04575881  0.76360270  0.93718946    -0.71700
O1573       O  0.50205337  0.76416427  0.95886550    -0.71700
O1574       O  0.00227198  0.76242004  0.91529804    -0.71900
V1575       V  0.00191703  0.81209374  0.93658641     1.35200
V1576       V  0.00220241  0.76427737  0.93708315     1.35200
C1577       C  0.00200770  0.78691877  0.90749259     0.77600
C1578       C  0.00171888  0.78924621  0.96615275     0.77600
C1579       C  0.06053843  0.78856827  0.93706984     0.77500
C1580       C  0.44360601  0.78781663  0.93702672     0.77500
O1581       O  0.24899964  0.93335597  0.95905682    -0.71700
O1582       O  0.25013354  0.93459976  0.91525942    -0.71900
O1583       O  0.29316189  0.93410728  0.93742648    -0.71700
O1584       O  0.20605230  0.93381233  0.93692435    -0.71800
O1585       O  0.20599677  0.48357662  0.93665379    -0.71700
O1586       O  0.29296086  0.48381933  0.93849419    -0.71700
O1587       O  0.25142467  0.48433043  0.91579978    -0.71700
O1588       O  0.24744583  0.48309231  0.95930026    -0.71900
V1589       V  0.24959903  0.93489924  0.93717572     1.35200
V1590       V  0.24946400  0.48271874  0.93754376     1.35200
C1591       C  0.24765482  0.45807574  0.96666354     0.77600
C1592       C  0.25129704  0.45981005  0.90804159     0.77600
C1593       C  0.30799988  0.95902498  0.93811464     0.77500
C1594       C  0.19110372  0.95869216  0.93672131     0.77500
O1595       O  0.25315495  0.76705739  0.96001626    -0.71700
O1596       O  0.25116972  0.76436733  0.91653982    -0.71900
O1597       O  0.29555227  0.76554245  0.93784614    -0.71700
O1598       O  0.20849523  0.76603792  0.93876215    -0.71800
O1599       O  0.20866855  0.81568790  0.93709122    -0.71700
O1600       O  0.29575053  0.81529883  0.93785620    -0.71700
O1601       O  0.25304965  0.81402038  0.91551858    -0.71700
O1602       O  0.25149076  0.81681449  0.95939023    -0.71900
V1603       V  0.25204960  0.76674398  0.93826689     1.35200
V1604       V  0.25221889  0.81453857  0.93747847     1.35200
C1605       C  0.25276898  0.79226867  0.96717094     0.77600
C1606       C  0.25219117  0.78853276  0.90852169     0.77600
C1607       C  0.31058332  0.79035903  0.93789234     0.77500
C1608       C  0.19363876  0.79093093  0.93793354     0.77500
O1609       O  0.44026113  0.50493291  0.58535154    -0.71700
O1610       O  0.43653403  0.00289923  0.54149355    -0.71900
O1611       O  0.43804815  0.96052317  0.56393931    -0.71700
O1612       O  0.43846170  0.54746124  0.56291749    -0.71800
O1613       O  0.98822392  0.54735918  0.56275654    -0.71700
O1614       O  0.98766274  0.96019230  0.56199824    -0.71700
O1615       O  0.98624951  0.50459480  0.54059859    -0.71700
O1616       O  0.98991753  0.00295056  0.58416248    -0.71900
V1617       V  0.43926651  0.00398245  0.56340867     1.35200
V1618       V  0.98704335  0.00377707  0.56239993     1.35200
C1619       C  0.96583108  0.00390085  0.59226826     0.77600
C1620       C  0.96089705  0.00356204  0.53354354     0.77600
C1621       C  0.46273088  0.94542287  0.56301159     0.77500
C1622       C  0.46334548  0.56234646  0.56276613     0.77500
O1623       O  0.44032801  0.75218046  0.58482688    -0.71700
O1624       O  0.43826867  0.75493208  0.54101066    -0.71900
O1625       O  0.43961741  0.71013863  0.56229566    -0.71700
O1626       O  0.43905191  0.79728129  0.56353021    -0.71800
O1627       O  0.98878047  0.79743629  0.56258094    -0.71700
O1628       O  0.98938146  0.71049118  0.56199309    -0.71700
O1629       O  0.98802155  0.75454671  0.54046945    -0.71700
O1630       O  0.99005355  0.75314610  0.58408177    -0.71900
V1631       V  0.44024962  0.75368149  0.56290036     1.35200
V1632       V  0.98806492  0.75395477  0.56229691     1.35200
C1633       C  0.96565455  0.75189164  0.59195549     0.77600
C1634       C  0.96284147  0.75481937  0.53323270     0.77600
C1635       C  0.46463521  0.69539157  0.56210399     0.77500
C1636       C  0.46389466  0.81229857  0.56310303     0.77500
O1637       O  0.31017308  0.49832069  0.54141730    -0.71700
O1638       O  0.30794448  0.99885230  0.58524831    -0.71900
O1639       O  0.30922301  0.95497885  0.56334296    -0.71700
O1640       O  0.30884247  0.54215717  0.56327773    -0.71800
O1641       O  0.25909948  0.54176955  0.56263407    -0.71700
O1642       O  0.25948003  0.95481200  0.56273158    -0.71700
O1643       O  0.25821562  0.49862385  0.58454550    -0.71700
O1644       O  0.26044328  0.99807133  0.54094287    -0.71900
V1645       V  0.30811461  0.99855746  0.56332270     1.35200
V1646       V  0.26030608  0.99831551  0.56273942     1.35200
C1647       C  0.28557202  0.99791283  0.53366926     0.77600
C1648       C  0.28263596  0.99916989  0.59240770     0.77600
C1649       C  0.28440326  0.93995947  0.56283041     0.77500
C1650       C  0.28382342  0.55689259  0.56296383     0.77500
O1651       O  0.31001140  0.74773395  0.54147481    -0.71700
O1652       O  0.30558235  0.74942710  0.58521570    -0.71900
O1653       O  0.30837849  0.70519876  0.56381490    -0.71700
O1654       O  0.30739381  0.79213154  0.56286059    -0.71800
O1655       O  0.25768131  0.79170140  0.56180115    -0.71700
O1656       O  0.25869486  0.70453662  0.56245761    -0.71700
O1657       O  0.25590313  0.74863233  0.58399268    -0.71700
O1658       O  0.26031059  0.74753419  0.54037654    -0.71900
V1659       V  0.30687348  0.74864087  0.56332995     1.35200
V1660       V  0.25910714  0.74811756  0.56218478     1.35200
C1661       C  0.28582722  0.74739209  0.53342233     0.77600
C1662       C  0.27998853  0.74902964  0.59211462     0.77600
C1663       C  0.28376142  0.68994255  0.56323685     0.77500
C1664       C  0.28242838  0.80685305  0.56212121     0.77500
C1665       C  0.28426721  0.90591636  0.56224803    -0.05400
C1666       C  0.25619590  0.89020924  0.56097886    -0.32800
C1667       C  0.25513513  0.85810393  0.56071145     0.36500
C1668       C  0.28250821  0.84090915  0.56177022    -0.05700
C1669       C  0.31060748  0.85664491  0.56266779    -0.32700
C1670       C  0.31167698  0.88871731  0.56279490     0.36400
H1671       H  0.23481735  0.90281759  0.56022886     0.16700
O1672       O  0.22719989  0.84391420  0.55921748    -0.60200
H1673       H  0.33202432  0.84408077  0.56334130     0.16800
O1674       O  0.33970590  0.90288250  0.56371013    -0.60300
H1675       H  0.34692296  0.90462989  0.55294277     0.43700
H1676       H  0.21887490  0.84256876  0.56980028     0.43700
C1677       C  0.28353390  0.59092438  0.56305851    -0.05400
C1678       C  0.31111903  0.60705439  0.56518915    -0.32800
C1679       C  0.31163480  0.63916569  0.56532623     0.36500
C1680       C  0.28416295  0.65591510  0.56333730    -0.05700
C1681       C  0.25659037  0.63977093  0.56124959    -0.32700
C1682       C  0.25606288  0.60769089  0.56114840     0.36400
H1683       H  0.33250052  0.59477610  0.56681161     0.16700
O1684       O  0.33908414  0.65381071  0.56772705    -0.60200
H1685       H  0.23519841  0.65202096  0.55961877     0.16800
O1686       O  0.22856944  0.59308743  0.55883317    -0.60300
H1687       H  0.21899999  0.59168798  0.56915275     0.43700
H1688       H  0.34911759  0.65460147  0.55750339     0.43700
C1689       C  0.46259158  0.91137657  0.56309707    -0.05400
C1690       C  0.99019146  0.89543190  0.56072355    -0.32800
C1691       C  0.99097975  0.86335730  0.56066345     0.36500
C1692       C  0.46381863  0.84635861  0.56311921    -0.05700
C1693       C  0.43617142  0.86229186  0.56546482    -0.32700
C1694       C  0.43540497  0.89441272  0.56553812     0.36400
H1695       H  0.01139161  0.90783953  0.55879930     0.16700
O1696       O  0.01854745  0.84898547  0.55819141    -0.60200
H1697       H  0.41497037  0.84985259  0.56734494     0.16800
O1698       O  0.40786325  0.90887159  0.56792948    -0.60300
H1699       H  0.40587292  0.91063852  0.57924806     0.43700
H1700       H  0.02007449  0.84661328  0.54688378     0.43700
C1701       C  0.46342247  0.59638977  0.56255584    -0.05400
C1702       C  0.99138322  0.61228462  0.56372010    -0.32800
C1703       C  0.99224030  0.64438657  0.56358565     0.36500
C1704       C  0.46477702  0.66136974  0.56214533    -0.05700
C1705       C  0.43684828  0.64547127  0.56097190    -0.32700
C1706       C  0.43598153  0.61340410  0.56112277     0.36400
H1707       H  0.01278539  0.59982503  0.56484003     0.16700
O1708       O  0.02011876  0.65878387  0.56484181    -0.60200
H1709       H  0.41542152  0.65790598  0.55988951     0.16800
O1710       O  0.40805760  0.59906446  0.55997579    -0.60300
H1711       H  0.40415467  0.59715585  0.54878999     0.43700
H1712       H  0.02356254  0.66123220  0.57604073     0.43700
C1713       C  0.40958089  0.78795502  0.93745977    -0.05400
C1714       C  0.39396370  0.81615327  0.93752307    -0.32800
C1715       C  0.36191166  0.81738374  0.93777671     0.36500
C1716       C  0.34461743  0.79001358  0.93794034    -0.05700
C1717       C  0.36022611  0.76177845  0.93807873    -0.32700
C1718       C  0.39231960  0.76056810  0.93794959     0.36400
H1719       H  0.40663455  0.83750792  0.93733669     0.16700
O1720       O  0.34786807  0.84554260  0.93803769    -0.60200
H1721       H  0.34754862  0.74039978  0.93830035     0.16800
O1722       O  0.40642331  0.73243065  0.93812241    -0.60300
H1723       H  0.40828476  0.72696456  0.94914944     0.43700
H1724       H  0.34642868  0.85189878  0.92711554     0.43700
C1725       C  0.09457225  0.78894370  0.93750505    -0.05400
C1726       C  0.11029948  0.81664854  0.93501180    -0.32800
C1727       C  0.14240354  0.81777636  0.93517160     0.36500
C1728       C  0.15957351  0.79084754  0.93791873    -0.05700
C1729       C  0.14381628  0.76322436  0.94059870    -0.32700
C1730       C  0.11173007  0.76213487  0.94051480     0.36400
H1731       H  0.09769463  0.83760090  0.93278144     0.16700
O1732       O  0.15663297  0.84539589  0.93266320    -0.60200
H1733       H  0.15638277  0.74225355  0.94286757     0.16800
O1734       O  0.09750281  0.73466284  0.94341380    -0.60300
H1735       H  0.09473768  0.73401761  0.95472511     0.43700
H1736       H  0.15822122  0.84730931  0.92133428     0.43700
C1737       C  0.40710149  0.45744009  0.93780710    -0.05400
C1738       C  0.39132025  0.48521554  0.94003344    -0.32800
C1739       C  0.35920007  0.48617733  0.94024806     0.36500
C1740       C  0.34206271  0.95897327  0.93826542    -0.05700
C1741       C  0.35785087  0.93119457  0.93614356    -0.32700
C1742       C  0.38993345  0.93021992  0.93594107     0.36400
H1743       H  0.40388674  0.50642200  0.94163198     0.16700
O1744       O  0.34492893  0.51381247  0.94267309    -0.60200
H1745       H  0.34529242  0.91000842  0.93452373     0.16800
O1746       O  0.40413135  0.90252787  0.93361358    -0.60300
H1747       H  0.40621904  0.89339340  0.94399578     0.43700
H1748       H  0.34388815  0.52367325  0.93241531     0.43700
C1749       C  0.15708942  0.95856218  0.93667097    -0.05400
C1750       C  0.14131213  0.93076373  0.93459088    -0.32800
C1751       C  0.10921630  0.92980125  0.93457460     0.36500
C1752       C  0.09213808  0.45698590  0.93677520    -0.05700
C1753       C  0.10793163  0.48476882  0.93884313    -0.32700
C1754       C  0.13999680  0.48571959  0.93888545     0.36400
H1755       H  0.15387425  0.90959282  0.93288433     0.16700
O1756       O  0.09490762  0.90208740  0.93248214    -0.60200
H1757       H  0.09541317  0.50596498  0.94059239     0.16800
O1758       O  0.15426541  0.51339481  0.94116625    -0.60300
H1759       H  0.15659390  0.51524013  0.95246152     0.43700
H1760       H  0.09334090  0.89952252  0.92119138     0.43700
C1761       C  0.40690550  0.77098660  0.18594241    -0.05400
C1762       C  0.39064695  0.79882160  0.18614448    -0.32800
C1763       C  0.35854451  0.79924742  0.18598944     0.36500
C1764       C  0.34189414  0.77142755  0.18579319    -0.05700
C1765       C  0.35815754  0.74363504  0.18525126    -0.32700
C1766       C  0.39025273  0.74321219  0.18533780     0.36400
H1767       H  0.40281484  0.82048828  0.18650118     0.16700
O1768       O  0.34381901  0.82706400  0.18630735    -0.60200
H1769       H  0.34599341  0.72196707  0.18492165     0.16800
O1770       O  0.40498610  0.71542474  0.18472140    -0.60300
H1771       H  0.40623828  0.70836344  0.19553938     0.43700
H1772       H  0.34159026  0.83313067  0.17537767     0.43700
C1773       C  0.09190930  0.77191054  0.18897371    -0.05400
C1774       C  0.10757075  0.74372942  0.18816363    -0.32800
C1775       C  0.13966993  0.74247587  0.18840411     0.36500
C1776       C  0.15695808  0.76976458  0.18954311    -0.05700
C1777       C  0.14128721  0.79790354  0.19055392    -0.32700
C1778       C  0.10918821  0.79914724  0.19033858     0.36400
H1779       H  0.09492786  0.72240468  0.18725344     0.16700
O1780       O  0.15376213  0.71436559  0.18764647    -0.60200
H1781       H  0.15393319  0.81923368  0.19141563     0.16800
O1782       O  0.09509498  0.82723862  0.19116590    -0.60300
H1783       H  0.09304776  0.83157127  0.20230685     0.43700
H1784       H  0.15517295  0.70957804  0.17653043     0.43700
C1785       C  0.40508482  0.48054361  0.18678897    -0.05400
C1786       C  0.38878052  0.50612404  0.18133446    -0.32800
C1787       C  0.35665468  0.50606565  0.18090268     0.36500
C1788       C  0.34013181  0.98033385  0.18629039    -0.05700
C1789       C  0.35646106  0.95452197  0.19140226    -0.32700
C1790       C  0.38853869  0.95446577  0.19171226     0.36400
H1791       H  0.40095842  0.52620021  0.17723693     0.16700
O1792       O  0.34174615  0.53129695  0.17514566    -0.60200
H1793       H  0.34434509  0.93438539  0.19547136     0.16800
O1794       O  0.40338267  0.92882549  0.19703868    -0.60300
H1795       H  0.40559018  0.93207967  0.20826408     0.43700
H1796       H  0.33885720  0.52692325  0.16405401     0.43700
C1797       C  0.09012331  0.48170187  0.18783008    -0.05400
C1798       C  0.10576213  0.95397146  0.19047680    -0.32800
C1799       C  0.13786571  0.95276993  0.19057538     0.36500
C1800       C  0.15515856  0.97973853  0.18819426    -0.05700
C1801       C  0.13952050  0.50740984  0.18542331    -0.32700
C1802       C  0.10742658  0.50856967  0.18520709     0.36400
H1803       H  0.09309572  0.93295984  0.19249091     0.16700
O1804       O  0.15196331  0.92515830  0.19330797    -0.60200
H1805       H  0.15219314  0.52838558  0.18332926     0.16800
O1806       O  0.09335241  0.53603935  0.18211378    -0.60300
H1807       H  0.09193987  0.54667140  0.19216583     0.43700
H1808       H  0.15301660  0.91488533  0.18315089     0.43700
C1809       C  0.25381135  0.79256312  0.01675542    -0.05400
C1810       C  0.26677318  0.76810802  0.00851074    -0.32800
C1811       C  0.26710350  0.76811800  0.99244329     0.36500
C1812       C  0.25390651  0.79270051  0.98420234    -0.05700
C1813       C  0.24136595  0.81745211  0.99241463    -0.32700
C1814       C  0.24110647  0.81747245  0.00854510     0.36400
H1815       H  0.27692380  0.74887373  0.01455114     0.16700
O1816       O  0.28059056  0.74395564  0.98492790    -0.60200
H1817       H  0.23096886  0.83645757  0.98631643     0.16800
O1818       O  0.22764520  0.84156681  0.01611989    -0.60300
H1819       H  0.20591911  0.83540284  0.01757909     0.43700
H1820       H  0.30216158  0.75036585  0.98319730     0.43700
C1821       C  0.24693765  0.78269530  0.10930222    -0.05400
C1822       C  0.23701932  0.75542680  0.11635882    -0.32800
C1823       C  0.23620711  0.75265406  0.13239173     0.36500
C1824       C  0.24569554  0.77731418  0.14175871    -0.05700
C1825       C  0.25516962  0.80473295  0.13471590    -0.32700
C1826       C  0.25603150  0.80750156  0.11868492     0.36400
H1827       H  0.22967293  0.73614011  0.10942442     0.16700
O1828       O  0.22597048  0.72572181  0.13874375    -0.60200
H1829       H  0.26267580  0.82395055  0.14165710     0.16800
O1830       O  0.26637032  0.83442077  0.11236151    -0.60300
H1831       H  0.28875584  0.83145486  0.11092749     0.43700
H1832       H  0.20375793  0.72895152  0.14060674     0.43700
C1833       C  0.24633580  0.45818240  0.98372794    -0.05400
C1834       C  0.24000860  0.48581236  0.99142237    -0.32800
C1835       C  0.23957882  0.48727033  0.00747639     0.36500
C1836       C  0.24546729  0.46070551  0.01629775    -0.05700
C1837       C  0.25111060  0.93289479  0.00862202    -0.32700
C1838       C  0.25152396  0.93145862  0.99252604     0.36400
H1839       H  0.23541547  0.50659195  0.98498061     0.16700
O1840       O  0.23274591  0.51474704  0.01437162    -0.60200
H1841       H  0.25568743  0.91216397  0.01510470     0.16800
O1842       O  0.25797179  0.90396835  0.98558220    -0.60300
H1843       H  0.23792424  0.89343235  0.98467209     0.43700
H1844       H  0.25227191  0.52636005  0.01446403     0.43700
C1845       C  0.24908004  0.46889916  0.10899407    -0.05400
C1846       C  0.24960062  0.94192399  0.11786517    -0.32800
C1847       C  0.24859849  0.94311708  0.13397305     0.36500
C1848       C  0.24717997  0.47170753  0.14159012    -0.05700
C1849       C  0.24668376  0.49861479  0.13269328    -0.32700
C1850       C  0.24774236  0.49745750  0.11664673     0.36400
H1851       H  0.25066992  0.91969807  0.11231838     0.16700
O1852       O  0.24942506  0.91615391  0.14209173    -0.60200
H1853       H  0.24561312  0.52090177  0.13817762     0.16800
O1854       O  0.24702310  0.52454067  0.10861632    -0.60300
H1855       H  0.26876601  0.53107111  0.10778522     0.43700
H1856       H  0.22775515  0.90935306  0.14277845     0.43700
C1857       C  0.40816989  0.78935646  0.06438249    -0.05400
C1858       C  0.39210281  0.76273497  0.06023804    -0.32800
C1859       C  0.36005573  0.76184924  0.06059808     0.36500
C1860       C  0.34318462  0.78814711  0.06487677    -0.05700
C1861       C  0.35923850  0.81460149  0.06944676    -0.32700
C1862       C  0.39143047  0.81517016  0.06946686     0.36400
H1863       H  0.40440081  0.74247235  0.05647824     0.16700
O1864       O  0.34551989  0.73541864  0.05612417    -0.60200
H1865       H  0.34683274  0.83484952  0.07314341     0.16800
O1866       O  0.40621357  0.84095434  0.07461715    -0.60300
H1867       H  0.40978242  0.83732719  0.08572470     0.43700
H1868       H  0.34489309  0.72236826  0.06546327     0.43700
C1869       C  0.09316552  0.78845310  0.06137114    -0.05400
C1870       C  0.10907453  0.76149772  0.05744464    -0.32800
C1871       C  0.14123815  0.76075475  0.05724671     0.36500
C1872       C  0.15820228  0.78724096  0.06116474    -0.05700
C1873       C  0.14224954  0.81419735  0.06494645    -0.32700
C1874       C  0.11018577  0.81494594  0.06515615     0.36400
H1875       H  0.09656689  0.74087733  0.05443063     0.16700
O1876       O  0.15571763  0.73394924  0.05327945    -0.60200
H1877       H  0.15465631  0.83483048  0.06803570     0.16800
O1878       O  0.09582892  0.84173131  0.06925722    -0.60300
H1879       H  0.09387353  0.84075798  0.08060440     0.43700
H1880       H  0.15818982  0.73496807  0.04195887     0.43700
C1881       C  0.99973923  0.79144495  0.01585684    -0.05400
C1882       C  0.49774072  0.76344535  0.00790342    -0.32800
C1883       C  0.49824309  0.76238160  0.99185179     0.36500
C1884       C  0.00103551  0.78969207  0.98323884    -0.05700
C1885       C  0.00296839  0.81774480  0.99115369    -0.32700
C1886       C  0.00242183  0.81880123  0.00727398     0.36400
H1887       H  0.49571899  0.74202107  0.01413937     0.16700
O1888       O  0.49620104  0.73434134  0.98477176    -0.60200
H1889       H  0.00515412  0.83899832  0.98482525     0.16800
O1890       O  0.00440393  0.84671074  0.01445891    -0.60300
H1891       H  0.02663509  0.85154002  0.01477431     0.43700
H1892       H  0.47392638  0.73049545  0.98357092     0.43700
C1893       C  0.00094315  0.78438752  0.10862714    -0.05400
C1894       C  0.99719294  0.75555155  0.11563677    -0.32800
C1895       C  0.99680659  0.75245390  0.13164271     0.36500
C1896       C  0.00038566  0.77849013  0.14112052    -0.05700
C1897       C  0.50367947  0.80741410  0.13411836    -0.32700
C1898       C  0.50375978  0.81053683  0.11808037     0.36400
H1899       H  0.99438086  0.73512125  0.10869060     0.16700
O1900       O  0.99217374  0.72387353  0.13783282    -0.60200
H1901       H  0.50623760  0.82784322  0.14108860     0.16800
O1902       O  0.50716309  0.83923900  0.11183595    -0.60300
H1903       H  0.48614084  0.84790708  0.11141001     0.43700
H1904       H  0.01274980  0.71416903  0.13808653     0.43700
C1905       C  0.34072019  0.96472524  0.06133557    -0.05400
C1906       C  0.35623056  0.93695095  0.05860666    -0.32800
C1907       C  0.38831616  0.93555184  0.05860397     0.36500
C1908       C  0.40573093  0.96224277  0.06136161    -0.05700
C1909       C  0.39023743  0.49011890  0.06386080    -0.32700
C1910       C  0.35812565  0.49154538  0.06382645     0.36400
H1911       H  0.34345617  0.91605924  0.05646347     0.16700
O1912       O  0.40230391  0.90802713  0.05559555    -0.60200
H1913       H  0.40303547  0.51097202  0.06605480     0.16800
O1914       O  0.34411489  0.51911433  0.06677118    -0.60300
H1915       H  0.34307809  0.52966477  0.05673675     0.43700
H1916       H  0.40441290  0.89798685  0.06575244     0.43700
C1917       C  0.09075083  0.96221397  0.06380002    -0.05400
C1918       C  0.10715193  0.93551309  0.06759893    -0.32800
C1919       C  0.13931057  0.93538967  0.06771947     0.36500
C1920       C  0.15574224  0.96233341  0.06398392    -0.05700
C1921       C  0.13930943  0.48906421  0.06037354    -0.32700
C1922       C  0.10724364  0.48923119  0.06030016     0.36400
H1923       H  0.09505461  0.91459246  0.07053276     0.16700
O1924       O  0.15433618  0.90899364  0.07187658    -0.60200
H1925       H  0.15133195  0.51000486  0.05740312     0.16800
O1926       O  0.09236755  0.51579989  0.05630011    -0.60300
H1927       H  0.09097019  0.52787162  0.06593567     0.43700
H1928       H  0.15482229  0.89620227  0.06245480     0.43700
C1929       C  0.50118419  0.45728359  0.01628808    -0.05400
C1930       C  0.00072277  0.92896102  0.00854021    -0.32800
C1931       C  0.00064386  0.92761305  0.99239909     0.36500
C1932       C  0.00104095  0.95491753  0.98366569    -0.05700
C1933       C  0.50204100  0.48311440  0.99146361    -0.32700
C1934       C  0.50232725  0.48449280  0.00748711     0.36400
H1935       H  0.00014236  0.90776289  0.01500722     0.16700
O1936       O  0.00042917  0.89951156  0.98534167    -0.60200
H1937       H  0.50258644  0.50450898  0.98512609     0.16800
O1938       O  0.50329944  0.51279579  0.01435767    -0.60300
H1939       H  0.52544603  0.51770630  0.01533007     0.43700
H1940       H  0.97849907  0.89347419  0.98487913     0.43700
C1941       C  0.49724484  0.46737814  0.10896747    -0.05400
C1942       C  0.99374431  0.94102339  0.11813199    -0.32800
C1943       C  0.99415797  0.94296853  0.13423302     0.36500
C1944       C  0.99796439  0.97169682  0.14150479    -0.05700
C1945       C  0.50158136  0.49793300  0.13232012    -0.32700
C1946       C  0.50122583  0.49602977  0.11629566     0.36400
H1947       H  0.99058702  0.91876020  0.11282733     0.16700
O1948       O  0.99004740  0.91672109  0.14268897    -0.60200
H1949       H  0.50481978  0.52024625  0.13755929     0.16800
O1950       O  0.50555586  0.52239920  0.10795848    -0.60300
H1951       H  0.48495453  0.53193485  0.10718105     0.43700
H1952       H  0.01066363  0.90720883  0.14337398     0.43700
C1953       C  0.28648302  0.74689079  0.48361931    -0.05400
C1954       C  0.31419732  0.74414495  0.49179762    -0.32800
C1955       C  0.31454177  0.74424773  0.50795427     0.36500
C1956       C  0.28684591  0.74704010  0.51630386    -0.05700
C1957       C  0.25926748  0.74976750  0.50809053    -0.32700
C1958       C  0.25885454  0.74965264  0.49203347     0.36400
H1959       H  0.33573343  0.74190083  0.48567303     0.16700
O1960       O  0.34208151  0.74125511  0.51539669    -0.60200
H1961       H  0.23764979  0.75216329  0.51412677     0.16800
O1962       O  0.23115538  0.75298174  0.48473680    -0.60300
H1963       H  0.22239571  0.73200755  0.48422591     0.43700
H1964       H  0.34849456  0.76258084  0.51777345     0.43700
C1965       C  0.28520983  0.90530747  0.43710728    -0.05400
C1966       C  0.31314541  0.88925998  0.43780952    -0.32800
C1967       C  0.31378522  0.85714995  0.43781791     0.36500
C1968       C  0.28614572  0.84030242  0.43729154    -0.05700
C1969       C  0.25825931  0.85635855  0.43643925    -0.32700
C1970       C  0.25758967  0.88843525  0.43633414     0.36400
H1971       H  0.33470282  0.90159662  0.43837468     0.16700
O1972       O  0.34161016  0.84258416  0.43853598    -0.60200
H1973       H  0.23670544  0.84404024  0.43579059     0.16800
O1974       O  0.22975014  0.90293143  0.43513411    -0.60300
H1975       H  0.22161323  0.90380762  0.44576999     0.43700
H1976       H  0.34803785  0.83999815  0.42767749     0.43700
C1977       C  0.28497536  0.59033577  0.43675954    -0.05400
C1978       C  0.25695701  0.60617397  0.43555719    -0.32800
C1979       C  0.25608692  0.63829868  0.43518782     0.36500
C1980       C  0.28356575  0.65533381  0.43620710    -0.05700
C1981       C  0.31156586  0.63945678  0.43709975    -0.32700
C1982       C  0.31242835  0.60741463  0.43742390     0.36400
H1983       H  0.23552376  0.59365601  0.43487219     0.16700
O1984       O  0.22818677  0.65266956  0.43397428    -0.60200
H1985       H  0.33305849  0.65188726  0.43774843     0.16800
O1986       O  0.34036446  0.59312877  0.43841046    -0.60300
H1987       H  0.34449541  0.59124660  0.44957984     0.43700
H1988       H  0.22451887  0.65480995  0.42277529     0.43700
C1989       C  0.28603323  0.99723656  0.51654375    -0.05400
C1990       C  0.31412941  0.99759673  0.50856430    -0.32800
C1991       C  0.31503079  0.99749551  0.49242129     0.36500
C1992       C  0.28746249  0.99705504  0.48386693    -0.05700
C1993       C  0.25947332  0.49626765  0.49188081    -0.32700
C1994       C  0.25856264  0.49612456  0.50794651     0.36400
H1995       H  0.33557786  0.99805639  0.51484170     0.16700
O1996       O  0.34301449  0.99746811  0.48519605    -0.60200
H1997       H  0.23793217  0.49567915  0.48567804     0.16800
O1998       O  0.23048730  0.49518904  0.51506289    -0.60300
H1999       H  0.22563874  0.47305159  0.51614132     0.43700
H2000       H  0.34925982  0.01933037  0.48469315     0.43700
C2001       C  0.96330847  0.75039142  0.48349250    -0.05400
C2002       C  0.43587876  0.75661153  0.49143025    -0.32800
C2003       C  0.43538683  0.75877355  0.50753649     0.36500
C2004       C  0.96251794  0.75424096  0.51611285    -0.05700
C2005       C  0.98992619  0.74831520  0.50814978    -0.32700
C2006       C  0.99050290  0.74625761  0.49210593     0.36400
H2007       H  0.41471622  0.76015226  0.48514386     0.16700
O2008       O  0.40822061  0.76540791  0.51473361    -0.60200
H2009       H  0.01114829  0.74478906  0.51438712     0.16800
O2010       O  0.01796002  0.74015697  0.48502257    -0.60300
H2011       H  0.01916247  0.71746143  0.48445112     0.43700
H2012       H  0.40739880  0.78811907  0.51523655     0.43700
C2013       C  0.46568136  0.84017362  0.43644538    -0.05400
C2014       C  0.99324812  0.85604780  0.43910670    -0.32800
C2015       C  0.99407238  0.88819768  0.43927515     0.36500
C2016       C  0.46694883  0.90524045  0.43678652    -0.05700
C2017       C  0.43946993  0.88932374  0.43402044    -0.32700
C2018       C  0.43864904  0.85725600  0.43388907     0.36400
H2019       H  0.01432170  0.84353513  0.44120503     0.16700
O2020       O  0.02140632  0.90258455  0.44228209    -0.60200
H2021       H  0.41832142  0.90174999  0.43197429     0.16800
O2022       O  0.41121123  0.84295844  0.43111117    -0.60300
H2023       H  0.40211894  0.83957089  0.44141865     0.43700
H2024       H  0.03204722  0.90382575  0.43223034     0.43700
C2025       C  0.46383233  0.59022318  0.43765653    -0.05400
C2026       C  0.98991392  0.60628121  0.43267895    -0.32800
C2027       C  0.99038743  0.63835650  0.43246476     0.36500
C2028       C  0.46446503  0.65514154  0.43733308    -0.05700
C2029       C  0.43826905  0.63910132  0.44225552    -0.32700
C2030       C  0.43782109  0.60696055  0.44245806     0.36400
H2031       H  0.01000538  0.59393479  0.42872363     0.16700
O2032       O  0.01592364  0.65300300  0.42687988    -0.60200
H2033       H  0.41814494  0.65149277  0.44613599     0.16800
O2034       O  0.41215857  0.59224139  0.44780811    -0.60300
H2035       H  0.39980815  0.58786218  0.43850429     0.43700
H2036       H  0.03053988  0.65363274  0.43560809     0.43700
C2037       C  0.96236937  0.99999172  0.48380301    -0.05400
C2038       C  0.43561580  0.99173950  0.49187382    -0.32800
C2039       C  0.43443497  0.99324119  0.50800765     0.36500
C2040       C  0.96035025  0.00300843  0.51642917    -0.05700
C2041       C  0.98681920  0.51176753  0.50831437    -0.32700
C2042       C  0.98800482  0.51036544  0.49225623     0.36400
H2043       H  0.41558748  0.98375831  0.48568159     0.16700
O2044       O  0.40821115  0.98402335  0.51539918    -0.60200
H2045       H  0.00687845  0.51987331  0.51444360     0.16800
O2046       O  0.01412558  0.52018683  0.48495099    -0.60300
H2047       H  0.02846326  0.50251813  0.48537060     0.43700
H2048       H  0.39489586  0.00245351  0.51565774     0.43700
C2049       C  0.26148581  0.75634552  0.26613519    -0.05400
C2050       C  0.28025664  0.77701783  0.25808286    -0.32800
C2051       C  0.27728793  0.78059685  0.24214353     0.36500
C2052       C  0.25607675  0.76255547  0.23393439    -0.05700
C2053       C  0.23793605  0.74124297  0.24192385    -0.32700
C2054       C  0.24009582  0.73848852  0.25794160     0.36400
H2055       H  0.29688746  0.79086154  0.26421141     0.16700
O2056       O  0.29613398  0.80082723  0.23460008    -0.60200
H2057       H  0.22167847  0.72703929  0.23575291     0.16800
O2058       O  0.22208401  0.71741346  0.26541203    -0.60300
H2059       H  0.20221277  0.72790227  0.26712380     0.43700
H2060       H  0.28597046  0.82106061  0.23559811     0.43700
C2061       C  0.27649778  0.74850647  0.35833633    -0.05400
C2062       C  0.25154797  0.75840448  0.36725591    -0.32800
C2063       C  0.25329492  0.75901361  0.38329959     0.36500
C2064       C  0.28040196  0.74954139  0.39083405    -0.05700
C2065       C  0.30547349  0.73984524  0.38192391    -0.32700
C2066       C  0.30371553  0.73929454  0.36583320     0.36400
H2067       H  0.23058248  0.76609657  0.36177953     0.16700
O2068       O  0.22863538  0.76990486  0.39145420    -0.60200
H2069       H  0.32641717  0.73221462  0.38743789     0.16800
O2070       O  0.32837666  0.72866245  0.35760565    -0.60300
H2071       H  0.34254451  0.74635383  0.35677536     0.43700
H2072       H  0.21421451  0.75238399  0.39219900     0.43700
C2073       C  0.27032486  0.90841444  0.31438571    -0.05400
C2074       C  0.24277321  0.89246505  0.31698089    -0.32800
C2075       C  0.24200583  0.86037674  0.31715560     0.36500
C2076       C  0.26909530  0.84341042  0.31452644    -0.05700
C2077       C  0.29683889  0.85934370  0.31247782    -0.32700
C2078       C  0.29764326  0.89144904  0.31238184     0.36400
H2079       H  0.22152853  0.90487477  0.31878252     0.16700
O2080       O  0.21449514  0.84596899  0.31971808    -0.60200
H2081       H  0.31807844  0.84691513  0.31068959     0.16800
O2082       O  0.32533488  0.90587140  0.31036548    -0.60300
H2083       H  0.32853925  0.90652619  0.29908814     0.43700
H2084       H  0.21323839  0.84336334  0.33102318     0.43700
C2085       C  0.26905767  0.65846245  0.31059812    -0.05400
C2086       C  0.24124781  0.64254917  0.30871025    -0.32800
C2087       C  0.24042326  0.61040275  0.30858307     0.36500
C2088       C  0.26771245  0.59338934  0.31054097    -0.05700
C2089       C  0.29553797  0.60934055  0.31228800    -0.32700
C2090       C  0.29637537  0.64144187  0.31239088     0.36400
H2091       H  0.21995388  0.65505376  0.30725030     0.16700
O2092       O  0.21274042  0.59597614  0.30659868    -0.60200
H2093       H  0.31685436  0.59691201  0.31382352     0.16800
O2094       O  0.32407059  0.65583076  0.31443518    -0.60300
H2095       H  0.32642444  0.65793271  0.32571587     0.43700
H2096       H  0.21061318  0.59329148  0.29533815     0.43700
C2097       C  0.25913849  0.49521808  0.26619170    -0.05400
C2098       C  0.24059564  0.97186778  0.26007870    -0.32800
C2099       C  0.23738683  0.96828223  0.24412700     0.36500
C2100       C  0.25202685  0.48887851  0.23399521    -0.05700
C2101       C  0.26978799  0.51282693  0.24017310    -0.32700
C2102       C  0.27363217  0.51588919  0.25610691     0.36400
H2103       H  0.22902178  0.95596445  0.26770417     0.16700
O2104       O  0.21904949  0.94523000  0.23858194    -0.60200
H2105       H  0.28121456  0.52892971  0.23260194     0.16800
O2106       O  0.29128069  0.53941134  0.26171140    -0.60300
H2107       H  0.27666058  0.55625827  0.26391261     0.43700
H2108       H  0.23211359  0.92662813  0.23863880     0.43700
C2109       C  0.28206836  0.99899812  0.39096342    -0.05400
C2110       C  0.25357468  0.49472191  0.38374799    -0.32800
C2111       C  0.25071599  0.49595289  0.36775858     0.36500
C2112       C  0.27669694  0.50152008  0.35844886    -0.05700
C2113       C  0.30534298  0.00550394  0.36562269    -0.32700
C2114       C  0.30818581  0.00422977  0.38169342     0.36400
H2115       H  0.23318633  0.49028055  0.39052291     0.16700
O2116       O  0.22242210  0.49068416  0.36138010    -0.60200
H2117       H  0.32566738  0.00974493  0.35876969     0.16800
O2118       O  0.33649852  0.00883165  0.38816808    -0.60300
H2119       H  0.34621475  0.98828298  0.38842254     0.43700
H2120       H  0.21167634  0.51071828  0.36177824     0.43700
C2121       C  0.98975599  0.75968151  0.26576076    -0.05400
C2122       C  0.01240738  0.74316690  0.25779653    -0.32800
C2123       C  0.01519240  0.74569398  0.24178825     0.36500
C2124       C  0.99571017  0.76557240  0.23355078    -0.05700
C2125       C  0.47379580  0.78289005  0.24156517    -0.32700
C2126       C  0.47036251  0.77967026  0.25749953     0.36400
H2127       H  0.02760900  0.72782743  0.26396887     0.16700
O2128       O  0.03716266  0.72879441  0.23431493    -0.60200
H2129       H  0.45876122  0.79841117  0.23539791     0.16800
O2130       O  0.44870461  0.79698237  0.26497170    -0.60300
H2131       H  0.42918342  0.78554200  0.26375494     0.43700
H2132       H  0.05498528  0.74277020  0.23320842     0.43700
C2133       C  0.97247795  0.74905366  0.35798114    -0.05400
C2134       C  0.99886083  0.74413331  0.36690260    -0.32800
C2135       C  0.99728256  0.74266277  0.38293881     0.36500
C2136       C  0.96889972  0.74653240  0.39057601    -0.05700
C2137       C  0.44235012  0.75098750  0.38166766    -0.32700
C2138       C  0.44395070  0.75235955  0.36555478     0.36400
H2139       H  0.02101764  0.74124673  0.36143604     0.16700
O2140       O  0.02386237  0.73760623  0.39098974    -0.60200
H2141       H  0.42026350  0.75392233  0.38719717     0.16800
O2142       O  0.41746201  0.75713601  0.35738986    -0.60300
H2143       H  0.41525444  0.77973933  0.35672829     0.43700
H2144       H  0.02530751  0.71499720  0.39207966     0.43700
C2145       C  0.48152231  0.84550171  0.31252270    -0.05400
C2146       C  0.00934442  0.86117668  0.31477331    -0.32800
C2147       C  0.01047378  0.89326629  0.31472791     0.36500
C2148       C  0.48342743  0.91046685  0.31237818    -0.05700
C2149       C  0.45565423  0.89478155  0.31002068    -0.32700
C2150       C  0.45455724  0.86271504  0.30996372     0.36400
H2151       H  0.03044056  0.84854889  0.31662855     0.16700
O2152       O  0.03823448  0.90744233  0.31689714    -0.60200
H2153       H  0.43457930  0.90738726  0.30806511     0.16800
O2154       O  0.42692500  0.84857281  0.30736391    -0.60300
H2155       H  0.42566467  0.84610245  0.29605048     0.43700
H2156       H  0.04033235  0.90965382  0.32819054     0.43700
C2157       C  0.48299659  0.59549333  0.31131216    -0.05400
C2158       C  0.45618879  0.61115627  0.30693234    -0.32800
C2159       C  0.45512758  0.64327611  0.30669297     0.36500
C2160       C  0.48128255  0.66051763  0.31078477    -0.05700
C2161       C  0.00807799  0.64483991  0.31517997    -0.32700
C2162       C  0.00911924  0.61274707  0.31546121     0.36400
H2163       H  0.43585942  0.59848429  0.30361253     0.16700
O2164       O  0.42856108  0.65746063  0.30211122    -0.60200
H2165       H  0.02838305  0.65747700  0.31857245     0.16800
O2166       O  0.03555229  0.59860608  0.32027646    -0.60300
H2167       H  0.04895134  0.59781913  0.31106884     0.43700
H2168       H  0.41550374  0.65829273  0.31144109     0.43700
C2169       C  0.99519132  0.99207282  0.23360298    -0.05400
C2170       C  0.47548735  0.97300809  0.24204836    -0.32800
C2171       C  0.47267341  0.97625350  0.25798537     0.36500
C2172       C  0.99049769  0.99814244  0.26585579    -0.05700
C2173       C  0.01090841  0.51668821  0.25749392    -0.32700
C2174       C  0.01287624  0.51420190  0.24142384     0.36400
H2175       H  0.46179061  0.95582505  0.23622442     0.16700
O2176       O  0.45339896  0.95697122  0.26587305    -0.60200
H2177       H  0.02495103  0.53346580  0.26340067     0.16800
O2178       O  0.03302351  0.53259025  0.23355088    -0.60300
H2179       H  0.02194958  0.55217552  0.23193384     0.43700
H2180       H  0.43279362  0.96641092  0.26500934     0.43700
C2181       C  0.96989109  0.99996776  0.39086607    -0.05400
C2182       C  0.99888027  0.49816691  0.38381408    -0.32800
C2183       C  0.00211101  0.49954970  0.36781752     0.36500
C2184       C  0.97602502  0.00265281  0.35831867    -0.05700
C2185       C  0.44697228  0.00456495  0.36534571    -0.32700
C2186       C  0.44375706  0.00320364  0.38140117     0.36400
H2187       H  0.01939242  0.49562244  0.39072698     0.16700
O2188       O  0.03098385  0.49720642  0.36164280    -0.60200
H2189       H  0.42652441  0.00706362  0.35838070     0.16800
O2190       O  0.41497229  0.00559051  0.38766041    -0.60300
H2191       H  0.40679506  0.98432491  0.38776792     0.43700
H2192       H  0.03918573  0.51838617  0.36162422     0.43700
C2193       C  0.25179063  0.78367870  0.85876411    -0.05400
C2194       C  0.24858986  0.75707501  0.86773088    -0.32800
C2195       C  0.24903963  0.75832821  0.88377422     0.36500
C2196       C  0.25232573  0.78674295  0.89141246    -0.05700
C2197       C  0.25584629  0.81345387  0.88248226    -0.32700
C2198       C  0.25568115  0.81210369  0.86633605     0.36400
H2199       H  0.24572641  0.73489382  0.86230318     0.16700
O2200       O  0.24570352  0.73146631  0.89182231    -0.60200
H2201       H  0.25882905  0.83552433  0.88800849     0.16800
O2202       O  0.25994607  0.83864612  0.85814752    -0.60300
H2203       H  0.23906399  0.84709229  0.85658859     0.43700
H2204       H  0.26668088  0.72277099  0.89257126     0.43700
C2205       C  0.25221386  0.46082134  0.89096603    -0.05400
C2206       C  0.24441531  0.93471145  0.88229908    -0.32800
C2207       C  0.24385842  0.93573170  0.86616152     0.36500
C2208       C  0.25156610  0.46308642  0.85836146    -0.05700
C2209       C  0.25996002  0.48889020  0.86706061    -0.32700
C2210       C  0.26026555  0.48799923  0.88311500     0.36400
H2211       H  0.23813779  0.91355097  0.88803482     0.16700
O2212       O  0.23541465  0.90995484  0.85819245    -0.60200
H2213       H  0.26642694  0.51007788  0.86140439     0.16800
O2214       O  0.26929351  0.51373671  0.89097650    -0.60300
H2215       H  0.25080461  0.52699619  0.89142990     0.43700
H2216       H  0.21280893  0.91128183  0.85722517     0.43700
C2217       C  0.34459956  0.77512556  0.81289849    -0.05400
C2218       C  0.36063212  0.80305284  0.81215605    -0.32800
C2219       C  0.39276165  0.80363740  0.81197454     0.36500
C2220       C  0.40954979  0.77589736  0.81241384    -0.05700
C2221       C  0.39347211  0.74804960  0.81317677    -0.32700
C2222       C  0.36144131  0.74745213  0.81335420     0.36400
H2223       H  0.34827104  0.82461613  0.81176963     0.16700
O2224       O  0.40737131  0.83148256  0.81126323    -0.60200
H2225       H  0.40574092  0.72643411  0.81351444     0.16800
O2226       O  0.34695510  0.71953816  0.81396661    -0.60300
H2227       H  0.34429739  0.71326435  0.80309937     0.43700
H2228       H  0.40976735  0.83805807  0.82210003     0.43700
C2229       C  0.09454580  0.77362920  0.81085562    -0.05400
C2230       C  0.11063178  0.74568723  0.81061804    -0.32800
C2231       C  0.14279093  0.74504864  0.81084771     0.36500
C2232       C  0.15963412  0.77273565  0.81131092    -0.05700
C2233       C  0.14352171  0.80064409  0.81134857    -0.32700
C2234       C  0.11144595  0.80130356  0.81104823     0.36400
H2235       H  0.09827959  0.72412503  0.81030037     0.16700
O2236       O  0.15740236  0.71718625  0.81036801    -0.60200
H2237       H  0.15579580  0.82225388  0.81166642     0.16800
O2238       O  0.09697646  0.82926113  0.81124859    -0.60300
H2239       H  0.09588420  0.83573136  0.80033976     0.43700
H2240       H  0.15812252  0.71006973  0.82118286     0.43700
C2241       C  0.00192118  0.78564164  0.89039810    -0.05400
C2242       C  0.00319687  0.75694284  0.88310022    -0.32800
C2243       C  0.00326887  0.75450802  0.86708722     0.36500
C2244       C  0.00230068  0.78116123  0.85782847    -0.05700
C2245       C  0.50075704  0.80992745  0.86509600    -0.32700
C2246       C  0.50064924  0.81230983  0.88118766     0.36400
H2247       H  0.00416803  0.73603921  0.88982505     0.16700
O2248       O  0.00468263  0.72578763  0.86068005    -0.60200
H2249       H  0.49969895  0.83074243  0.85830598     0.16800
O2250       O  0.49892556  0.84084240  0.88773505    -0.60300
H2251       H  0.52048203  0.84799203  0.88848374     0.43700
H2252       H  0.98306221  0.71878902  0.86001111     0.43700
C2253       C  0.34344636  0.97235805  0.81181490    -0.05400
C2254       C  0.35874875  0.50039590  0.81403687    -0.32800
C2255       C  0.39080062  0.50194559  0.81416784     0.36500
C2256       C  0.40838443  0.47510162  0.81203421    -0.05700
C2257       C  0.39307707  0.94713586  0.80952425    -0.32700
C2258       C  0.36100714  0.94562619  0.80929669     0.36400
H2259       H  0.34584999  0.52135631  0.81580284     0.16700
O2260       O  0.40455827  0.52993733  0.81625213    -0.60200
H2261       H  0.40597699  0.92620401  0.80767204     0.16800
O2262       O  0.34721274  0.91783450  0.80665715    -0.60300
H2263       H  0.34556457  0.91621233  0.79531793     0.43700
H2264       H  0.40590936  0.53261131  0.82754777     0.43700
C2265       C  0.09342990  0.47531688  0.81143563    -0.05400
C2266       C  0.10870601  0.94695984  0.81026592    -0.32800
C2267       C  0.14078438  0.94525955  0.81035648     0.36500
C2268       C  0.15843107  0.97227117  0.81161652    -0.05700
C2269       C  0.14315175  0.50063843  0.81265752    -0.32700
C2270       C  0.11108336  0.50234989  0.81248062     0.36400
H2271       H  0.09576962  0.92581636  0.80932494     0.16700
O2272       O  0.15450388  0.91704040  0.80907937    -0.60200
H2273       H  0.15608589  0.52178440  0.81357827     0.16800
O2274       O  0.09737712  0.53059860  0.81357100    -0.60300
H2275       H  0.09598303  0.53820941  0.80285537     0.43700
H2276       H  0.15537977  0.90887720  0.81969322     0.43700
C2277       C  0.00048084  0.96214237  0.89087233    -0.05400
C2278       C  0.50469504  0.49098876  0.88394339    -0.32800
C2279       C  0.50561901  0.49418577  0.86794798     0.36500
C2280       C  0.00191789  0.96826490  0.85838245    -0.05700
C2281       C  0.99803713  0.93935497  0.86530237    -0.32700
C2282       C  0.99724851  0.93617885  0.88133712     0.36400
H2283       H  0.50748989  0.51134069  0.89094878     0.16700
O2284       O  0.50996353  0.52290059  0.86186229    -0.60200
H2285       H  0.99528665  0.91903534  0.85827112     0.16800
O2286       O  0.99327800  0.90753118  0.88751333    -0.60300
H2287       H  0.97074079  0.90466852  0.88817116     0.43700
H2288       H  0.53253558  0.52527476  0.86098130     0.43700
C2289       C  0.26208704  0.75650861  0.73446792    -0.05400
C2290       C  0.23774390  0.77353748  0.74078564    -0.32800
C2291       C  0.23516622  0.77765271  0.75670370     0.36500
C2292       C  0.25648898  0.76378893  0.76663698    -0.05700
C2293       C  0.28048585  0.74623616  0.76040868    -0.32700
C2294       C  0.28364120  0.74288030  0.74445008     0.36400
H2295       H  0.22091415  0.78419006  0.73333227     0.16700
O2296       O  0.21105975  0.79428820  0.76248189    -0.60200
H2297       H  0.29714933  0.73554053  0.76794506     0.16800
O2298       O  0.30771326  0.72606767  0.73876752    -0.60300
H2299       H  0.29976891  0.70483291  0.73779902     0.43700
H2300       H  0.21788449  0.81598164  0.76210373     0.43700
C2301       C  0.27300554  0.74826890  0.64184701    -0.05400
C2302       C  0.30181951  0.74648185  0.63462374    -0.32800
C2303       C  0.30451075  0.74680660  0.61856009     0.36500
C2304       C  0.27805897  0.74884186  0.60923442    -0.05700
C2305       C  0.24921208  0.75046165  0.61645706    -0.32700
C2306       C  0.24651422  0.75009619  0.63252104     0.36400
H2307       H  0.32254217  0.74485616  0.64144783     0.16700
O2308       O  0.33318345  0.74454268  0.61215494    -0.60200
H2309       H  0.22848314  0.75209167  0.60963658     0.16800
O2310       O  0.21781803  0.75224326  0.63891923    -0.60300
H2311       H  0.21002216  0.73087988  0.63931570     0.43700
H2312       H  0.34121770  0.76581201  0.61192970     0.43700
C2313       C  0.27000023  0.90804930  0.68695502    -0.05400
C2314       C  0.24202264  0.89237903  0.68529081    -0.32800
C2315       C  0.24089996  0.86029199  0.68533852     0.36500
C2316       C  0.26816326  0.84307233  0.68692859    -0.05700
C2317       C  0.29615515  0.85875739  0.68850739    -0.32700
C2318       C  0.29726735  0.89082708  0.68852314     0.36400
H2319       H  0.22075017  0.90500874  0.68404093     0.16700
O2320       O  0.21297913  0.84613607  0.68371858    -0.60200
H2321       H  0.31742206  0.84615656  0.68985354     0.16800
O2322       O  0.32511174  0.90496151  0.69050181    -0.60300
H2323       H  0.33423186  0.90614922  0.68007903     0.43700
H2324       H  0.20445882  0.84484331  0.69426588     0.43700
C2325       C  0.27031024  0.59300838  0.69001681    -0.05400
C2326       C  0.24212946  0.60870527  0.69007936    -0.32800
C2327       C  0.24096620  0.64079283  0.69005187     0.36500
C2328       C  0.26835590  0.65806805  0.68986928    -0.05700
C2329       C  0.29657011  0.64238267  0.68992673    -0.32700
C2330       C  0.29773048  0.61026578  0.68992943     0.36400
H2331       H  0.22071285  0.59608338  0.69011586     0.16700
O2332       O  0.21282630  0.65489410  0.68993828    -0.60200
H2333       H  0.31797900  0.65501895  0.68980421     0.16800
O2334       O  0.32585688  0.59612424  0.68979463    -0.60300
H2335       H  0.33140635  0.59428373  0.67878130     0.43700
H2336       H  0.20691213  0.65675609  0.70089933     0.43700
C2337       C  0.26293152  0.49219106  0.73449485    -0.05400
C2338       C  0.23762475  0.50472252  0.74231902    -0.32800
C2339       C  0.23371447  0.49993032  0.75812449     0.36500
C2340       C  0.25477020  0.48166937  0.76628038    -0.05700
C2341       C  0.27971333  0.96863047  0.75847403    -0.32700
C2342       C  0.28422068  0.97422186  0.74276882     0.36400
H2343       H  0.22096136  0.51852654  0.73618464     0.16700
O2344       O  0.20915307  0.51304767  0.76548517    -0.60200
H2345       H  0.29620974  0.95471515  0.76466754     0.16800
O2346       O  0.30889262  0.96108400  0.73552008    -0.60300
H2347       H  0.32622837  0.97537487  0.73733289     0.43700
H2348       H  0.19306883  0.49695415  0.76563795     0.43700
C2349       C  0.28119665  0.00046172  0.60952021    -0.05400
C2350       C  0.25240938  0.50192048  0.61678495    -0.32800
C2351       C  0.24985388  0.50329478  0.63280537     0.36500
C2352       C  0.27641951  0.00292865  0.64210821    -0.05700
C2353       C  0.30527854  0.00188168  0.63486431    -0.32700
C2354       C  0.30782349  0.00059839  0.61878395     0.36400
H2355       H  0.23154226  0.50204432  0.61002310     0.16700
O2356       O  0.22109242  0.50456104  0.63918625    -0.60200
H2357       H  0.32607625  0.00173429  0.64167915     0.16800
O2358       O  0.33650956  0.99973095  0.61230870    -0.60300
H2359       H  0.34222005  0.97771543  0.61211183     0.43700
H2360       H  0.21617117  0.52673110  0.63989081     0.43700
C2361       C  0.99152193  0.75633681  0.73363107    -0.05400
C2362       C  0.01265004  0.77772773  0.73946991    -0.32800
C2363       C  0.01555794  0.78233769  0.75535139     0.36500
C2364       C  0.99788731  0.76472897  0.76562323    -0.05700
C2365       C  0.47751291  0.74265998  0.75976836    -0.32700
C2366       C  0.47404799  0.73859767  0.74392030     0.36400
H2367       H  0.02647412  0.79136280  0.73168556     0.16700
O2368       O  0.03652341  0.80320739  0.76072336    -0.60200
H2369       H  0.46384882  0.72880486  0.76752815     0.16800
O2370       O  0.45376064  0.71699574  0.73861554    -0.60300
H2371       H  0.46622228  0.69831004  0.73687539     0.43700
H2372       H  0.02587710  0.82327299  0.76035534     0.43700
C2373       C  0.97282701  0.74708075  0.64158686    -0.05400
C2374       C  0.44392796  0.74464607  0.63446744    -0.32800
C2375       C  0.44102211  0.74589249  0.61837733     0.36500
C2376       C  0.96727266  0.75001296  0.60904433    -0.05700
C2377       C  0.99607144  0.75211974  0.61620478    -0.32700
C2378       C  0.99900771  0.75082287  0.63218368     0.36400
H2379       H  0.42344590  0.74175425  0.64137828     0.16700
O2380       O  0.41238417  0.74331690  0.61197652    -0.60200
H2381       H  0.01667408  0.75513185  0.60939715     0.16800
O2382       O  0.02777547  0.75353021  0.63843050    -0.60300
H2383       H  0.03105171  0.77589496  0.63973931     0.43700
H2384       H  0.40908649  0.72098290  0.61059029     0.43700
C2385       C  0.47965174  0.84163820  0.68615732    -0.05400
C2386       C  0.50385183  0.85769059  0.67916209    -0.32800
C2387       C  0.50437238  0.88981894  0.67900829     0.36500
C2388       C  0.98036247  0.90660701  0.68591109    -0.05700
C2389       C  0.95595617  0.89056764  0.69273965    -0.32700
C2390       C  0.95545292  0.85843703  0.69292074     0.36400
H2391       H  0.52249160  0.84530496  0.67373255     0.16700
O2392       O  0.52806270  0.90452767  0.67168821    -0.60200
H2393       H  0.93743552  0.90295620  0.69827134     0.16800
O2394       O  0.93189373  0.84378321  0.70037750    -0.60300
H2395       H  0.91480837  0.84313703  0.69285757     0.43700
H2396       H  0.54508310  0.90487603  0.67922937     0.43700
C2397       C  0.98348202  0.59149234  0.69101564    -0.05400
C2398       C  0.45552642  0.60753095  0.69062344    -0.32800
C2399       C  0.45475646  0.63961856  0.69038956     0.36500
C2400       C  0.48235317  0.65665302  0.69059350    -0.05700
C2401       C  0.01031976  0.64065634  0.69154910    -0.32700
C2402       C  0.01105118  0.60846695  0.69186731     0.36400
H2403       H  0.43396561  0.59518247  0.69020378     0.16700
O2404       O  0.42674715  0.65396065  0.68988422    -0.60200
H2405       H  0.03182211  0.65310298  0.69195289     0.16800
O2406       O  0.03892854  0.59396408  0.69275002    -0.60300
H2407       H  0.04310370  0.59180174  0.70389586     0.43700
H2408       H  0.42137691  0.65502745  0.67882759     0.43700
C2409       C  0.49022639  0.49167672  0.73413592    -0.05400
C2410       C  0.01286011  0.97215751  0.74021318    -0.32800
C2411       C  0.01580216  0.96814033  0.75612374     0.36500
C2412       C  0.99667193  0.98458813  0.76620209    -0.05700
C2413       C  0.47443992  0.50452282  0.76015711    -0.32700
C2414       C  0.47087334  0.50786077  0.74426020     0.36400
H2415       H  0.02797491  0.95957247  0.73259249     0.16700
O2416       O  0.03821345  0.94907418  0.76172394    -0.60200
H2417       H  0.45946298  0.51722042  0.76780431     0.16800
O2418       O  0.44865478  0.52726598  0.73875755    -0.60300
H2419       H  0.45888399  0.54748594  0.73771596     0.43700
H2420       H  0.02905140  0.92824901  0.76155559     0.43700
C2421       C  0.47419774  0.50297934  0.64193209    -0.05400
C2422       C  0.44510808  0.50519467  0.63500018    -0.32800
C2423       C  0.44187490  0.50565376  0.61893986     0.36500
C2424       C  0.96801203  0.00371225  0.60937812    -0.05700
C2425       C  0.99704998  0.00144312  0.61633974    -0.32700
C2426       C  0.00028909  0.00092344  0.63234575     0.36400
H2427       H  0.42465382  0.50661732  0.64204454     0.16700
O2428       O  0.41297902  0.50759758  0.61278028    -0.60200
H2429       H  0.01756549  0.99983725  0.60934971     0.16800
O2430       O  0.02921403  0.99834649  0.63842659    -0.60300
H2431       H  0.03303266  0.97596986  0.63924629     0.43700
H2432       H  0.40838987  0.52985271  0.61228662     0.43700
O2433       O  0.51054419  0.49404757  0.70873805    -0.71700
O2434       O  0.50294454  0.00267256  0.66547565    -0.71900
O2435       O  0.50775168  0.04202438  0.68924241    -0.71700
O2436       O  0.50571571  0.45524624  0.68503261    -0.71800
O2437       O  0.95647588  0.45572380  0.68875898    -0.71700
O2438       O  0.95802107  0.04287411  0.68999598    -0.71700
O2439       O  0.95340618  0.50058719  0.66751043    -0.71700
O2440       O  0.96107818  0.99803342  0.71108859    -0.71900
V2441       V  0.50578750  0.99858305  0.68716130     1.35200
V2442       V  0.95816395  0.99931640  0.68928454     1.35200
C2443       C  0.98712534  0.99484347  0.71730569     0.77600
C2444       C  0.97695533  0.00216390  0.65900703     0.77600
C2445       C  0.48317186  0.05739225  0.69013255     0.77500
C2446       C  0.48085014  0.44059008  0.68650032     0.77500
O2447       O  0.96148362  0.24960227  0.71090598    -0.71700
O2448       O  0.95218123  0.24836582  0.66730752    -0.71900
O2449       O  0.95724934  0.20548214  0.68953064    -0.71700
O2450       O  0.95603684  0.29241896  0.68892447    -0.71800
O2451       O  0.50505394  0.29301196  0.68453892    -0.71700
O2452       O  0.50696376  0.20595194  0.68865347    -0.71700
O2453       O  0.50163219  0.24558435  0.66499688    -0.71700
O2454       O  0.51082852  0.25401062  0.70809204    -0.71900
V2455       V  0.95765217  0.24893576  0.68910439     1.35200
V2456       V  0.50518854  0.24953357  0.68660200     1.35200
C2457       C  0.48776626  0.25300611  0.71686590     0.77600
C2458       C  0.47555322  0.24676489  0.65866664     0.77600
C2459       C  0.98223092  0.19075925  0.68959006     0.77500
C2460       C  0.98024978  0.30763214  0.68651814     0.77500
O2461       O  0.79813429  0.00306199  0.66753604    -0.71700
O2462       O  0.79186325  0.49698580  0.71113851    -0.71900
O2463       O  0.79503448  0.45691107  0.68797005    -0.71700
O2464       O  0.79513262  0.04381286  0.69075780    -0.71800
O2465       O  0.74563476  0.04415095  0.68819728    -0.71700
O2466       O  0.74530326  0.45707658  0.68706978    -0.71700
O2467       O  0.74222351  0.99932758  0.70938141    -0.71700
O2468       O  0.74852142  0.50171430  0.66588305    -0.71900
V2469       V  0.79410503  0.50030387  0.68932630     1.35200
V2470       V  0.74639430  0.50062000  0.68766305     1.35200
C2471       C  0.77429108  0.50274677  0.65921129     0.77600
C2472       C  0.76588886  0.49661630  0.71766782     0.77600
C2473       C  0.77016139  0.44207113  0.68730264     0.77500
C2474       C  0.77043974  0.05892753  0.68969432     0.77500
O2475       O  0.74057149  0.25344696  0.70932064    -0.71700
O2476       O  0.74552748  0.24814836  0.66581068    -0.71900
O2477       O  0.74315717  0.20706493  0.68886889    -0.71700
O2478       O  0.74318098  0.29406333  0.68632111    -0.71800
O2479       O  0.79273588  0.29415403  0.68858704    -0.71700
O2480       O  0.79290331  0.20712268  0.68943425    -0.71700
O2481       O  0.79517517  0.24983048  0.66712851    -0.71700
O2482       O  0.79026021  0.25150314  0.71087883    -0.71900
V2483       V  0.74407773  0.25060248  0.68760970     1.35200
V2484       V  0.79182681  0.25063312  0.68897480     1.35200
C2485       C  0.76449187  0.25346573  0.71754005     0.77600
C2486       C  0.77113117  0.24867315  0.65896304     0.77600
C2487       C  0.76805371  0.19214807  0.68940996     0.77500
C2488       C  0.76795622  0.30903794  0.68724605     0.77500
O2489       O  0.99870376  0.00468301  0.79152802    -0.71700
O2490       O  0.50249374  0.99700787  0.83488541    -0.71900
O2491       O  0.54445730  0.00085357  0.81232830    -0.71700
O2492       O  0.95720091  0.00040594  0.81397172    -0.71800
O2493       O  0.95750563  0.45106660  0.81074569    -0.71700
O2494       O  0.54437081  0.45114530  0.81119756    -0.71700
O2495       O  0.00053817  0.44747093  0.83282956    -0.71700
O2496       O  0.50138991  0.45510298  0.78922228    -0.71900
V2497       V  0.50078794  0.99979524  0.81314739     1.35200
V2498       V  0.50095868  0.45214767  0.81105367     1.35200
C2499       C  0.49932848  0.48126271  0.78299430     0.77600
C2500       C  0.50171816  0.47102394  0.84133440     0.77600
C2501       C  0.55936029  0.97593586  0.81164585     0.77500
C2502       C  0.94241862  0.97564422  0.81229018     0.77500
O2503       O  0.00291606  0.29480930  0.78857422    -0.71700
O2504       O  0.50156306  0.30271852  0.83229800    -0.71900
O2505       O  0.54566911  0.29853333  0.81073145    -0.71700
O2506       O  0.95883127  0.29965082  0.81011033    -0.71800
O2507       O  0.95811031  0.25041157  0.81371960    -0.71700
O2508       O  0.54531533  0.24881266  0.81154823    -0.71700
O2509       O  0.00374082  0.25318363  0.83424367    -0.71700
O2510       O  0.49912919  0.24535126  0.79105826    -0.71900
V2511       V  0.50226851  0.29801378  0.81046127     1.35200
V2512       V  0.50165011  0.25039656  0.81259990     1.35200
C2513       C  0.50036791  0.26858105  0.78242481     0.77600
C2514       C  0.50260037  0.27903774  0.84075588     0.77600
C2515       C  0.56044954  0.27361643  0.81102234     0.77500
C2516       C  0.94355166  0.27534925  0.81207544     0.77500
O2517       O  0.74955815  0.44235463  0.83268351    -0.71700
O2518       O  0.75308178  0.45129720  0.78911639    -0.71900
O2519       O  0.79466166  0.44677462  0.81157622    -0.71700
O2520       O  0.70742264  0.44694125  0.81009336    -0.71800
O2521       O  0.70747475  0.99613261  0.81384780    -0.71700
O2522       O  0.79435389  0.99648281  0.81281295    -0.71700
O2523       O  0.74986267  0.00079874  0.79169714    -0.71700
O2524       O  0.75203254  0.99184016  0.83502499    -0.71900
V2525       V  0.75108553  0.44773065  0.81092132     1.35200
V2526       V  0.75090664  0.99531966  0.81331616     1.35200
C2527       C  0.75092839  0.96569564  0.84131943     0.77600
C2528       C  0.75212520  0.97766536  0.78303761     0.77600
C2529       C  0.80943271  0.47173915  0.81207430     0.77500
C2530       C  0.69250025  0.47162081  0.81186942     0.77500
O2531       O  0.75024719  0.25446184  0.83552987    -0.71700
O2532       O  0.75543509  0.24463592  0.79225664    -0.71900
O2533       O  0.79587332  0.25046484  0.81504606    -0.71700
O2534       O  0.70907742  0.24861632  0.81268723    -0.71800
O2535       O  0.70825612  0.29829923  0.81136579    -0.71700
O2536       O  0.79547219  0.29952077  0.81086174    -0.71700
O2537       O  0.75138576  0.29400687  0.78938793    -0.71700
O2538       O  0.75243207  0.30389124  0.83292622    -0.71900
V2539       V  0.75255963  0.25051563  0.81384370     1.35200
V2540       V  0.75185655  0.29803239  0.81119045     1.35200
C2541       C  0.75142329  0.28073077  0.84170143     0.77600
C2542       C  0.75417168  0.26765024  0.78344471     0.77600
C2543       C  0.81059373  0.27508271  0.81297792     0.77500
C2544       C  0.69371632  0.27316647  0.81179708     0.77500
O2545       O  0.95508176  0.00423229  0.33277829    -0.71700
O2546       O  0.96204779  0.50089845  0.28922021    -0.71900
O2547       O  0.95866479  0.45933646  0.31170355    -0.71700
O2548       O  0.95852390  0.04638239  0.31017231    -0.71800
O2549       O  0.50797136  0.04660357  0.31300109    -0.71700
O2550       O  0.50838744  0.45950810  0.31278835    -0.71700
O2551       O  0.51170750  0.00327198  0.29106211    -0.71700
O2552       O  0.50465584  0.50274129  0.33467455    -0.71900
V2553       V  0.95953541  0.50281349  0.31100413     1.35200
V2554       V  0.50722772  0.50306791  0.31285020     1.35200
C2555       C  0.47871465  0.50335741  0.34122499     0.77600
C2556       C  0.48802316  0.50118658  0.28272976     0.77600
C2557       C  0.98357621  0.44449488  0.31230558     0.77500
C2558       C  0.98321071  0.06143287  0.31151304     0.77500
O2559       O  0.95211392  0.25057885  0.33230396    -0.71700
O2560       O  0.96047913  0.25623708  0.28889289    -0.68700
O2561       O  0.95644194  0.20964649  0.30930501    -0.71700
O2562       O  0.95635548  0.29664479  0.31181050    -0.71800
O2563       O  0.50604328  0.29644330  0.31321685    -0.71700
O2564       O  0.50577026  0.20940553  0.31261191    -0.71700
O2565       O  0.51005491  0.25370495  0.29112209    -0.71700
O2566       O  0.50162840  0.25208805  0.33466263    -0.71900
V2567       V  0.95730153  0.25319869  0.31062240     1.35200
V2568       V  0.50492504  0.25290720  0.31286421     1.35200
C2569       C  0.47543890  0.25068539  0.34094867     0.77600
C2570       C  0.48665385  0.25624400  0.28261048     0.77600
C2571       C  0.98108765  0.19458571  0.31082661     0.77500
C2572       C  0.98124214  0.31147280  0.31256706     0.77500
O2573       O  0.79762591  0.50145146  0.33282614    -0.71700
O2574       O  0.78904558  0.00082196  0.28913846    -0.71900
O2575       O  0.79286211  0.04468322  0.31079871    -0.71700
O2576       O  0.79413552  0.45764260  0.31123440    -0.71800
O2577       O  0.74496521  0.45705266  0.31507403    -0.71700
O2578       O  0.74312897  0.04401686  0.31173425    -0.71700
O2579       O  0.73962339  0.49677753  0.29174383    -0.71700
O2580       O  0.74810294  0.00354952  0.33499462    -0.71900
V2581       V  0.79250204  0.00117090  0.31102491     1.35200
V2582       V  0.74491177  0.00046521  0.31333228     1.35200
C2583       C  0.77411694  0.00240788  0.34139113     0.77600
C2584       C  0.76280988  0.99786553  0.28304186     0.77600
C2585       C  0.76779489  0.05929856  0.31098640     0.77500
C2586       C  0.76987172  0.44242945  0.31356988     0.77500
O2587       O  0.74061299  0.25185289  0.29141008    -0.71700
O2588       O  0.74776182  0.24989558  0.33493597    -0.71900
O2589       O  0.74406269  0.29440696  0.31379931    -0.71700
O2590       O  0.74426877  0.20728136  0.31262308    -0.71800
O2591       O  0.79372333  0.20764494  0.30975728    -0.71700
O2592       O  0.79378416  0.29457422  0.31265687    -0.71700
O2593       O  0.79735597  0.24825629  0.33285883    -0.71700
O2594       O  0.79025190  0.25434648  0.28943696    -0.71900
V2595       V  0.74512238  0.25085049  0.31314314     1.35200
V2596       V  0.79281588  0.25114161  0.31119672     1.35200
C2597       C  0.76422456  0.25393851  0.28301685     0.77600
C2598       C  0.77380451  0.24869196  0.34134480     0.77600
C2599       C  0.76891301  0.30940133  0.31368070     0.77500
C2600       C  0.76905317  0.19252778  0.31096819     0.77500
O2601       O  0.93895921  0.99630148  0.45881133    -0.71700
O2602       O  0.94230608  0.49873656  0.41495860    -0.71900
O2603       O  0.94150823  0.45385054  0.43626576    -0.71700
O2604       O  0.93965732  0.04089062  0.43752760    -0.71800
O2605       O  0.48944292  0.04182327  0.43751876    -0.71700
O2606       O  0.49113316  0.45470499  0.43805558    -0.71700
O2607       O  0.49200525  0.99793048  0.41601044    -0.71700
O2608       O  0.48862232  0.49901753  0.45959681    -0.71900
V2609       V  0.94154177  0.49739545  0.43690261     1.35200
V2610       V  0.48932165  0.49828931  0.43778586     1.35200
C2611       C  0.46330839  0.49821199  0.46670561     0.77600
C2612       C  0.46783141  0.49877288  0.40797350     0.77600
C2613       C  0.96660453  0.43932558  0.43706245     0.77500
C2614       C  0.96425957  0.05625263  0.43761590     0.77500
O2615       O  0.93896073  0.24922429  0.45860832    -0.71700
O2616       O  0.94156141  0.24648584  0.41469949    -0.71900
O2617       O  0.93971351  0.20416042  0.43733065    -0.71700
O2618       O  0.94053370  0.29125865  0.43598539    -0.71800
O2619       O  0.49021040  0.29102844  0.43735070    -0.71700
O2620       O  0.48950591  0.20392943  0.43737670    -0.71700
O2621       O  0.49126339  0.24731879  0.41565412    -0.71700
O2622       O  0.48866731  0.24760813  0.45913504    -0.71900
V2623       V  0.94110181  0.24775392  0.43667139     1.35200
V2624       V  0.48890189  0.24744992  0.43737187     1.35200
C2625       C  0.46356718  0.24890788  0.46637925     0.77600
C2626       C  0.46706563  0.24666985  0.40767457     0.77600
C2627       C  0.96455140  0.18913439  0.43735020     0.77500
C2628       C  0.96544495  0.30609102  0.43656706     0.77500
O2629       O  0.80896696  0.99848798  0.41513282    -0.71700
O2630       O  0.81150511  0.49721967  0.45890486    -0.71900
O2631       O  0.81022260  0.45422604  0.43673175    -0.71700
O2632       O  0.81006878  0.04135856  0.43721849    -0.71800
O2633       O  0.76031413  0.04133934  0.43752152    -0.71700
O2634       O  0.76051097  0.45433857  0.43785935    -0.71700
O2635       O  0.76177455  0.99800876  0.45955411    -0.71700
O2636       O  0.75923902  0.49756092  0.41594303    -0.71900
V2637       V  0.80925000  0.49781988  0.43702422     1.35200
V2638       V  0.76144309  0.49780615  0.43772322     1.35200
C2639       C  0.78361851  0.49827177  0.40804261     0.77600
C2640       C  0.78702453  0.49744108  0.46673955     0.77600
C2641       C  0.78530371  0.43934940  0.43722403     0.77500
C2642       C  0.78516740  0.05628677  0.43721614     0.77500
O2643       O  0.76121295  0.24707986  0.45925167    -0.71700
O2644       O  0.75820345  0.24952521  0.41586608    -0.71900
O2645       O  0.75907155  0.20466903  0.43692549    -0.71700
O2646       O  0.76067539  0.29175569  0.43807085    -0.71800
O2647       O  0.81036914  0.29090512  0.43681047    -0.71700
O2648       O  0.80882739  0.20392201  0.43654264    -0.71700
O2649       O  0.80790219  0.24766683  0.41478333    -0.71700
O2650       O  0.81093380  0.24708234  0.45869389    -0.71900
V2651       V  0.76079924  0.24822286  0.43753252     1.35200
V2652       V  0.80859542  0.24740446  0.43673125     1.35200
C2653       C  0.78633125  0.24697452  0.46648587     0.77600
C2654       C  0.78234749  0.24897378  0.40785621     0.77600
C2655       C  0.78372672  0.18936972  0.43652921     0.77500
C2656       C  0.78579027  0.30626165  0.43743227     0.77500
O2657       O  0.49985362  0.43422063  0.04145003    -0.71700
O2658       O  0.99684582  0.43905602  0.08522919    -0.71900
O2659       O  0.95460290  0.43667296  0.06255306    -0.71700
O2660       O  0.54195433  0.43668179  0.06412271    -0.71800
O2661       O  0.54164542  0.98632922  0.06246495    -0.71700
O2662       O  0.95483287  0.98639480  0.06148772    -0.71700
O2663       O  0.49738320  0.98869717  0.08366374    -0.71700
O2664       O  0.99934273  0.98389812  0.04028634    -0.71900
V2665       V  0.99827633  0.43754604  0.06331814     1.35200
V2666       V  0.99827768  0.98529652  0.06200263     1.35200
C2667       C  0.00014910  0.95842132  0.03337731     0.77600
C2668       C  0.99705402  0.96486618  0.09192593     0.77600
C2669       C  0.93978433  0.46162690  0.06177789     0.77500
C2670       C  0.55672530  0.46166900  0.06347191     0.77500
O2671       O  0.99994466  0.31550784  0.04085228    -0.71700
O2672       O  0.50161722  0.31198573  0.08464290    -0.71900
O2673       O  0.54428805  0.31348381  0.06229718    -0.71700
O2674       O  0.95719632  0.31426615  0.06341597    -0.71800
O2675       O  0.95687364  0.26451942  0.06243688    -0.71700
O2676       O  0.54403477  0.26376767  0.06119674    -0.71700
O2677       O  0.00133743  0.26228083  0.08353567    -0.71700
O2678       O  0.49937344  0.26578332  0.04006484    -0.71900
V2679       V  0.50076708  0.31287479  0.06275709     1.35200
V2680       V  0.50041460  0.26508074  0.06181322     1.35200
C2681       C  0.49959361  0.29108615  0.03295986     0.77600
C2682       C  0.50142274  0.28643285  0.09157389     0.77600
C2683       C  0.55910081  0.28857254  0.06161404     0.77500
C2684       C  0.94214137  0.28946959  0.06339508     0.77500
O2685       O  0.75008912  0.44135518  0.08505963    -0.71700
O2686       O  0.74697843  0.43748401  0.04132125    -0.71900
O2687       O  0.79201707  0.43988852  0.06232455    -0.71700
O2688       O  0.70517323  0.43849023  0.06405834    -0.71800
O2689       O  0.70414433  0.98815686  0.06252653    -0.71700
O2690       O  0.79143994  0.98963679  0.06166049    -0.71700
O2691       O  0.74685067  0.98720667  0.04034868    -0.71700
O2692       O  0.74845808  0.99100831  0.08381174    -0.71900
V2693       V  0.74857901  0.44026308  0.06316747     1.35200
V2694       V  0.74776803  0.98803833  0.06210658     1.35200
C2695       C  0.74935180  0.96697840  0.09192379     0.77600
C2696       C  0.74637148  0.96181478  0.03335587     0.77600
C2697       C  0.80666367  0.46488979  0.06177634     0.77500
C2698       C  0.68974749  0.46300091  0.06355797     0.77500
O2699       O  0.74781644  0.26064273  0.08411788    -0.71700
O2700       O  0.75398116  0.26548824  0.04061847    -0.71900
O2701       O  0.79428729  0.26334942  0.06387267    -0.71700
O2702       O  0.70745389  0.26266765  0.06080894    -0.71800
O2703       O  0.70689053  0.31220388  0.06319951    -0.71700
O2704       O  0.79413619  0.31311697  0.06427676    -0.71700
O2705       O  0.75126664  0.31515359  0.04186994    -0.71700
O2706       O  0.74950391  0.31031668  0.08550063    -0.71900
V2707       V  0.75089663  0.26400383  0.06238318     1.35200
V2708       V  0.75046290  0.31176063  0.06367989     1.35200
C2709       C  0.74809523  0.28467208  0.09227663     0.77600
C2710       C  0.75302894  0.29110417  0.03378193     0.77600
C2711       C  0.80913797  0.28824162  0.06438881     0.77500
C2712       C  0.69224749  0.28730821  0.06166825     0.77500
O2713       O  0.99739312  0.00149951  0.16455198    -0.71700
O2714       O  0.49768512  0.01155796  0.20793423    -0.71900
O2715       O  0.54106119  0.00660115  0.18613276    -0.71700
O2716       O  0.95375210  0.00621531  0.18617348    -0.71800
O2717       O  0.95425055  0.45665353  0.18850664    -0.71700
O2718       O  0.54114377  0.45729976  0.18951334    -0.71700
O2719       O  0.99635846  0.46203794  0.21072124    -0.71700
O2720       O  0.49860808  0.45205736  0.16732258    -0.71900
V2721       V  0.49746436  0.00553598  0.18626411     1.35200
V2722       V  0.49764026  0.45799410  0.18897586     1.35200
C2723       C  0.49800602  0.47511187  0.15849424     0.77600
C2724       C  0.49673050  0.48846655  0.21672646     0.77600
C2725       C  0.55604821  0.98196437  0.18782070     0.77500
C2726       C  0.93908673  0.98120783  0.18718740     0.77500
O2727       O  0.00134552  0.29977083  0.16650835    -0.71700
O2728       O  0.49640558  0.29380520  0.21004793    -0.71900
O2729       O  0.54268050  0.29690111  0.18949250    -0.71700
O2730       O  0.95554699  0.29644103  0.18703758    -0.71800
O2731       O  0.95617055  0.24669940  0.18653559    -0.71700
O2732       O  0.54310801  0.24747094  0.18665816    -0.71700
O2733       O  0.99974385  0.24417155  0.20840417    -0.71700
O2734       O  0.49954345  0.25017235  0.16481222    -0.71900
V2735       V  0.49907814  0.29580403  0.18824451     1.35200
V2736       V  0.49963510  0.24809383  0.18663332     1.35200
C2737       C  0.50046718  0.27599742  0.15817542     0.77600
C2738       C  0.49753216  0.26796468  0.21664408     0.77600
C2739       C  0.55784008  0.27221662  0.18835188     0.77500
C2740       C  0.94093216  0.27137308  0.18650573     0.77500
O2741       O  0.74785814  0.45925923  0.21084719    -0.71700
O2742       O  0.74794989  0.45091501  0.16724343    -0.71900
O2743       O  0.79148032  0.45540993  0.18894795    -0.71700
O2744       O  0.70427026  0.45479601  0.18902408    -0.71800
O2745       O  0.70409223  0.00448181  0.18764509    -0.71700
O2746       O  0.79100746  0.00471612  0.18551480    -0.71700
O2747       O  0.74562162  0.00040862  0.16498550    -0.71700
O2748       O  0.74995890  0.00879161  0.20839712    -0.71900
V2749       V  0.74786193  0.45602297  0.18899200     1.35200
V2750       V  0.74759917  0.00363041  0.18670873     1.35200
C2751       C  0.74960231  0.98546943  0.21705991     0.77600
C2752       C  0.74677555  0.97431252  0.15864177     0.77600
C2753       C  0.80614568  0.48014385  0.18688558     0.77500
C2754       C  0.68923300  0.47958633  0.18834605     0.77500
O2755       O  0.75115272  0.24174772  0.20872626    -0.71700
O2756       O  0.74795899  0.24867174  0.16522163    -0.71900
O2757       O  0.79323155  0.24580756  0.18616279    -0.71700
O2758       O  0.70604200  0.24492828  0.18772800    -0.71800
O2759       O  0.70593555  0.29440731  0.19035516    -0.71700
O2760       O  0.79269243  0.29549698  0.18744373    -0.71700
O2761       O  0.74654390  0.29829131  0.16717521    -0.71700
O2762       O  0.75269609  0.29142445  0.21065464    -0.71900
V2763       V  0.74960270  0.24623390  0.18700482     1.35200
V2764       V  0.74938516  0.29393253  0.18888288     1.35200
C2765       C  0.75311360  0.26538374  0.21708324     0.77600
C2766       C  0.74658816  0.27462386  0.15875097     0.77600
C2767       C  0.80787684  0.27090274  0.18643311     0.77500
C2768       C  0.69104440  0.26958993  0.18927738     0.77500
O2769       O  0.99922099  0.98402337  0.91599792    -0.71700
O2770       O  0.50051531  0.98040018  0.95944230    -0.71900
O2771       O  0.54329832  0.98191202  0.93738181    -0.71700
O2772       O  0.95616239  0.98218455  0.93811669    -0.71800
O2773       O  0.95609190  0.43250854  0.93674925    -0.71700
O2774       O  0.54311218  0.43216563  0.93673481    -0.71700
O2775       O  0.99965579  0.43068133  0.95869174    -0.71700
O2776       O  0.49974452  0.43432410  0.91484360    -0.71900
V2777       V  0.49976104  0.98113640  0.93771556     1.35200
V2778       V  0.49961682  0.43335056  0.93677022     1.35200
C2779       C  0.49969032  0.45992310  0.90793141     0.77600
C2780       C  0.50037630  0.45512017  0.96656470     0.77600
C2781       C  0.55812519  0.95696239  0.93696102     0.77500
C2782       C  0.94117867  0.95733971  0.93753067     0.77500
O2783       O  0.00187523  0.31215340  0.91468834    -0.71700
O2784       O  0.50183844  0.31390430  0.95845177    -0.71900
O2785       O  0.54546058  0.31335507  0.93660716    -0.71700
O2786       O  0.95841152  0.31276366  0.93663462    -0.71800
O2787       O  0.95865550  0.26301508  0.93711232    -0.71700
O2788       O  0.54575887  0.26360354  0.93718943    -0.71700
O2789       O  0.00205318  0.26416375  0.95886565    -0.71700
O2790       O  0.50227226  0.26242075  0.91529791    -0.71900
V2791       V  0.50191686  0.31209435  0.93658634     1.35200
V2792       V  0.50220250  0.26427798  0.93708303     1.35200
C2793       C  0.50200794  0.28691951  0.90749248     0.77600
C2794       C  0.50171867  0.28924669  0.96615267     0.77600
C2795       C  0.56053836  0.28856919  0.93706986     0.77500
C2796       C  0.94360579  0.28781649  0.93702698     0.77500
O2797       O  0.74899988  0.43335631  0.95905650    -0.71700
O2798       O  0.75013331  0.43460050  0.91525912    -0.71900
O2799       O  0.79316187  0.43410777  0.93742607    -0.71700
O2800       O  0.70605229  0.43381295  0.93692412    -0.71800
O2801       O  0.70599675  0.98357728  0.93665351    -0.71700
O2802       O  0.79296086  0.98381980  0.93849400    -0.71700
O2803       O  0.75142471  0.98433112  0.91579954    -0.71700
O2804       O  0.74744578  0.98309270  0.95930005    -0.71900
V2805       V  0.74959902  0.43489980  0.93717541     1.35200
V2806       V  0.74946399  0.98271930  0.93754353     1.35200
C2807       C  0.74765502  0.95807605  0.96666326     0.77600
C2808       C  0.75129688  0.95981079  0.90804132     0.77600
C2809       C  0.80799990  0.45902543  0.93811436     0.77500
C2810       C  0.69110373  0.45869280  0.93672104     0.77500
O2811       O  0.75315416  0.26705846  0.96001632    -0.71700
O2812       O  0.75116984  0.26436856  0.91653991    -0.71900
O2813       O  0.79555196  0.26554348  0.93784644    -0.71700
O2814       O  0.70849499  0.26603919  0.93876201    -0.71800
O2815       O  0.70866841  0.31568920  0.93709128    -0.71700
O2816       O  0.79575043  0.31529986  0.93785642    -0.71700
O2817       O  0.75304966  0.31402162  0.91551869    -0.71700
O2818       O  0.75149046  0.31681557  0.95939039    -0.71900
V2819       V  0.75204931  0.26674515  0.93826697     1.35200
V2820       V  0.75221876  0.31453975  0.93747860     1.35200
C2821       C  0.75276831  0.29226966  0.96717106     0.77600
C2822       C  0.75219121  0.28853399  0.90852179     0.77600
C2823       C  0.81058311  0.29035999  0.93789265     0.77500
C2824       C  0.69363858  0.29093223  0.93793348     0.77500
O2825       O  0.94026308  0.00493273  0.58535183    -0.71700
O2826       O  0.93653467  0.50289965  0.54149382    -0.71900
O2827       O  0.93804933  0.46052337  0.56393939    -0.71700
O2828       O  0.93846326  0.04746149  0.56291797    -0.71800
O2829       O  0.48822266  0.04735903  0.56275639    -0.71700
O2830       O  0.48766133  0.46019209  0.56199844    -0.71700
O2831       O  0.48624887  0.00459427  0.54059860    -0.71700
O2832       O  0.48991561  0.50295083  0.58416243    -0.71900
V2833       V  0.93926770  0.50398266  0.56340891     1.35200
V2834       V  0.48704188  0.50377690  0.56239988     1.35200
C2835       C  0.46582901  0.50390123  0.59226810     0.77600
C2836       C  0.46089625  0.50356152  0.53354333     0.77600
C2837       C  0.96273204  0.44542309  0.56301138     0.77500
C2838       C  0.96334708  0.06234666  0.56276655     0.77500
O2839       O  0.94033009  0.25218139  0.58482704    -0.71700
O2840       O  0.93827068  0.25493157  0.54101083    -0.71900
O2841       O  0.93961952  0.21013886  0.56229617    -0.71700
O2842       O  0.93905382  0.29728147  0.56352999    -0.71800
O2843       O  0.48877849  0.29743600  0.56258094    -0.71700
O2844       O  0.48937945  0.21049097  0.56199287    -0.71700
O2845       O  0.48801956  0.25454657  0.54046932    -0.71700
O2846       O  0.49005149  0.25314563  0.58408165    -0.71900
V2847       V  0.94025166  0.25368170  0.56290052     1.35200
V2848       V  0.48806290  0.25395450  0.56229679     1.35200
C2849       C  0.46565250  0.25189076  0.59195536     0.77600
C2850       C  0.46283950  0.25481957  0.53323257     0.77600
C2851       C  0.96463731  0.19539182  0.56210440     0.77500
C2852       C  0.96389651  0.31229883  0.56310283     0.77500
O2853       O  0.81017117  0.99832044  0.54141697    -0.71700
O2854       O  0.80794249  0.49885205  0.58524800    -0.71900
O2855       O  0.80922148  0.45497861  0.56334266    -0.71700
O2856       O  0.80884014  0.04215692  0.56327739    -0.71800
O2857       O  0.75909714  0.04176910  0.56263398    -0.71700
O2858       O  0.75947851  0.45481144  0.56273089    -0.71700
O2859       O  0.75821343  0.99862280  0.58454510    -0.71700
O2860       O  0.76044162  0.49807143  0.54094246    -0.71900
V2861       V  0.80811278  0.49855720  0.56332239     1.35200
V2862       V  0.76030426  0.49831498  0.56273904     1.35200
C2863       C  0.78557043  0.49791296  0.53366889     0.77600
C2864       C  0.78263394  0.49916920  0.59240736     0.77600
C2865       C  0.78440185  0.43995907  0.56282991     0.77500
C2866       C  0.78382103  0.05689224  0.56296375     0.77500
O2867       O  0.81001066  0.24773369  0.54147503    -0.71700
O2868       O  0.80558066  0.24942622  0.58521590    -0.71900
O2869       O  0.80837694  0.20519819  0.56381499    -0.71700
O2870       O  0.80739284  0.29213104  0.56286093    -0.71800
O2871       O  0.75768039  0.29170111  0.56180093    -0.71700
O2872       O  0.75869330  0.20453640  0.56245775    -0.71700
O2873       O  0.75590145  0.24863235  0.58399265    -0.71700
O2874       O  0.76030987  0.24753369  0.54037652    -0.71900
V2875       V  0.80687225  0.24864032  0.56333016     1.35200
V2876       V  0.75910593  0.24811731  0.56218475     1.35200
C2877       C  0.78582664  0.24739184  0.53342243     0.77600
C2878       C  0.77998671  0.24902907  0.59211470     0.77600
C2879       C  0.78375974  0.18994216  0.56323703     0.77500
C2880       C  0.78242751  0.30685265  0.56212120     0.77500
C2881       C  0.78426607  0.40591596  0.56224756    -0.05400
C2882       C  0.75619508  0.39020873  0.56097706    -0.32800
C2883       C  0.75513447  0.35810341  0.56070977     0.36500
C2884       C  0.78250739  0.34090873  0.56177003    -0.05700
C2885       C  0.81060644  0.35664459  0.56266888    -0.32700
C2886       C  0.81167580  0.38871700  0.56279588     0.36400
H2887       H  0.73481664  0.40281700  0.56022590     0.16700
O2888       O  0.72719959  0.34391357  0.55921438    -0.60200
H2889       H  0.83202316  0.34408051  0.56334355     0.16800
O2890       O  0.83970446  0.40288231  0.56371253    -0.60300
H2891       H  0.84692392  0.40462928  0.55294552     0.43700
H2892       H  0.71887212  0.34256877  0.56979673     0.43700
C2893       C  0.78353150  0.09092402  0.56305873    -0.05400
C2894       C  0.81111690  0.10705387  0.56518882    -0.32800
C2895       C  0.81163288  0.13916514  0.56532597     0.36500
C2896       C  0.78416098  0.15591472  0.56333762    -0.05700
C2897       C  0.75658806  0.13977072  0.56125065    -0.32700
C2898       C  0.75606035  0.10769067  0.56114945     0.36400
H2899       H  0.83249849  0.09477546  0.56681074     0.16700
O2900       O  0.83908253  0.15380996  0.56772619    -0.60200
H2901       H  0.73519600  0.15202088  0.55962040     0.16800
O2902       O  0.72856655  0.09308738  0.55883505    -0.60300
H2903       H  0.71899864  0.09168740  0.56915496     0.43700
H2904       H  0.84911479  0.15460132  0.55750224     0.43700
C2905       C  0.96259281  0.41137680  0.56309660    -0.05400
C2906       C  0.49018981  0.39543157  0.56072371    -0.32800
C2907       C  0.49097797  0.36335696  0.56066364     0.36500
C2908       C  0.96382026  0.34635886  0.56311877    -0.05700
C2909       C  0.93617272  0.36229195  0.56546368    -0.32700
C2910       C  0.93540605  0.39441280  0.56553693     0.36400
H2911       H  0.51138988  0.40783912  0.55879911     0.16700
O2912       O  0.51854548  0.34898503  0.55819125    -0.60200
H2913       H  0.91497156  0.34985258  0.56734330     0.16800
O2914       O  0.90786396  0.40887150  0.56792747    -0.60300
H2915       H  0.90587195  0.41063780  0.57924603     0.43700
H2916       H  0.52007204  0.34661303  0.54688361     0.43700
C2917       C  0.96342419  0.09638999  0.56255635    -0.05400
C2918       C  0.49138162  0.11228455  0.56371993    -0.32800
C2919       C  0.49223851  0.14438650  0.56358544     0.36500
C2920       C  0.96477902  0.16136997  0.56214583    -0.05700
C2921       C  0.93685018  0.14547160  0.56097262    -0.32700
C2922       C  0.93598329  0.11340444  0.56112349     0.36400
H2923       H  0.51278380  0.09982508  0.56484010     0.16700
O2924       O  0.52011685  0.15878395  0.56484184    -0.60200
H2925       H  0.91542343  0.15790638  0.55989037     0.16800
O2926       O  0.90805927  0.09906492  0.55997670    -0.60300
H2927       H  0.90415619  0.09715600  0.54879092     0.43700
H2928       H  0.52356015  0.16123241  0.57604085     0.43700
C2929       C  0.90958067  0.28795520  0.93746011    -0.05400
C2930       C  0.89396371  0.31615358  0.93752329    -0.32800
C2931       C  0.86191167  0.31738433  0.93777696     0.36500
C2932       C  0.84461722  0.29001431  0.93794073    -0.05700
C2933       C  0.86022567  0.26177905  0.93807928    -0.32700
C2934       C  0.89231915  0.26056843  0.93795013     0.36400
H2935       H  0.90663474  0.33750812  0.93733677     0.16700
O2936       O  0.84786830  0.34554330  0.93803779    -0.60200
H2937       H  0.84754802  0.24040049  0.93830104     0.16800
O2938       O  0.90642262  0.23243086  0.93812310    -0.60300
H2939       H  0.90828416  0.22696509  0.94915016     0.43700
H2940       H  0.84642881  0.35189918  0.92711565     0.43700
C2941       C  0.59457215  0.28894477  0.93750509    -0.05400
C2942       C  0.61029927  0.31664968  0.93501188    -0.32800
C2943       C  0.64240332  0.31777759  0.93517162     0.36500
C2944       C  0.65957337  0.29084880  0.93791868    -0.05700
C2945       C  0.64381624  0.26322556  0.94059863    -0.32700
C2946       C  0.61173005  0.26213597  0.94051479     0.36400
H2947       H  0.59769433  0.33760201  0.93278156     0.16700
O2948       O  0.65663268  0.34539715  0.93266323    -0.60200
H2949       H  0.65638279  0.24225476  0.94286746     0.16800
O2950       O  0.59750290  0.23466388  0.94341378    -0.60300
H2951       H  0.59473813  0.23401843  0.95472508     0.43700
H2952       H  0.65822054  0.34731079  0.92133430     0.43700
C2953       C  0.90710147  0.95744023  0.93780723    -0.05400
C2954       C  0.89132027  0.98521564  0.94003380    -0.32800
C2955       C  0.85920009  0.98617754  0.94024826     0.36500
C2956       C  0.84206273  0.45897365  0.93826518    -0.05700
C2957       C  0.85785084  0.43119498  0.93614312    -0.32700
C2958       C  0.88993343  0.43022025  0.93594076     0.36400
H2959       H  0.90388681  0.00642197  0.94163267     0.16700
O2960       O  0.84492899  0.01381261  0.94267354    -0.60200
H2961       H  0.84529236  0.41000894  0.93452305     0.16800
O2962       O  0.90413127  0.40252825  0.93361303    -0.60300
H2963       H  0.90621867  0.39339327  0.94399519     0.43700
H2964       H  0.84388834  0.02367380  0.93241590     0.43700
C2965       C  0.65708941  0.45856282  0.93667059    -0.05400
C2966       C  0.64131218  0.43076434  0.93459050    -0.32800
C2967       C  0.60921636  0.42980179  0.93457417     0.36500
C2968       C  0.59213801  0.95698645  0.93677476    -0.05700
C2969       C  0.60793150  0.98476938  0.93884279    -0.32700
C2970       C  0.63999668  0.98572022  0.93888510     0.36400
H2971       H  0.65387435  0.40959344  0.93288402     0.16700
O2972       O  0.59490776  0.40208790  0.93248171    -0.60200
H2973       H  0.59541299  0.00596548  0.94059214     0.16800
O2974       O  0.65426524  0.01339545  0.94116596    -0.60300
H2975       H  0.65659366  0.01524073  0.95246122     0.43700
H2976       H  0.59334099  0.39952306  0.92119095     0.43700
C2977       C  0.90690559  0.27098642  0.18594219    -0.05400
C2978       C  0.89064673  0.29882124  0.18614384    -0.32800
C2979       C  0.85854431  0.29924667  0.18598875     0.36500
C2980       C  0.84189428  0.27142659  0.18579294    -0.05700
C2981       C  0.85815798  0.24363424  0.18525129    -0.32700
C2982       C  0.89025316  0.24321178  0.18533782     0.36400
H2983       H  0.90281436  0.32048808  0.18650025     0.16700
O2984       O  0.84381850  0.32706310  0.18630615    -0.60200
H2985       H  0.84599408  0.22196611  0.18492194     0.16800
O2986       O  0.90498687  0.21542449  0.18472168    -0.60300
H2987       H  0.90623919  0.20836362  0.19553979     0.43700
H2988       H  0.84158950  0.33312886  0.17537633     0.43700
C2989       C  0.59190959  0.27190879  0.18897342    -0.05400
C2990       C  0.60757098  0.24372768  0.18816286    -0.32800
C2991       C  0.63967018  0.24247404  0.18840349     0.36500
C2992       C  0.65695835  0.26976262  0.18954312    -0.05700
C2993       C  0.64128753  0.29790153  0.19055438    -0.32700
C2994       C  0.60918855  0.29914533  0.19033891     0.36400
H2995       H  0.59492805  0.22240306  0.18725217     0.16700
O2996       O  0.65376234  0.21436380  0.18764533    -0.60200
H2997       H  0.65393352  0.31923158  0.19141658     0.16800
O2998       O  0.59509540  0.32723668  0.19116679    -0.60300
H2999       H  0.59304792  0.33156832  0.20230784     0.43700
H3000       H  0.65517371  0.20957734  0.17652918     0.43700
C3001       C  0.90508474  0.98054404  0.18678965    -0.05400
C3002       C  0.88878025  0.00612422  0.18133500    -0.32800
C3003       C  0.85665441  0.00606547  0.18090309     0.36500
C3004       C  0.84013190  0.48033333  0.18629072    -0.05700
C3005       C  0.85646134  0.45452175  0.19140280    -0.32700
C3006       C  0.88853898  0.45446594  0.19171297     0.36400
H3007       H  0.90095799  0.02620045  0.17723743     0.16700
O3008       O  0.84174572  0.03129657  0.17514595    -0.60200
H3009       H  0.84434552  0.43438509  0.19547191     0.16800
O3010       O  0.90338314  0.42882598  0.19703965    -0.60300
H3011       H  0.90559066  0.43208062  0.20826496     0.43700
H3012       H  0.83885698  0.02692273  0.16405431     0.43700
C3013       C  0.59012314  0.98170079  0.18782994    -0.05400
C3014       C  0.60576209  0.45396994  0.19047624    -0.32800
C3015       C  0.63786568  0.45276829  0.19057471     0.36500
C3016       C  0.65515858  0.47973697  0.18819389    -0.05700
C3017       C  0.63952038  0.00740869  0.18542333    -0.32700
C3018       C  0.60742647  0.00856868  0.18520728     0.36400
H3019       H  0.59309563  0.43295825  0.19249007     0.16700
O3020       O  0.65196324  0.42515650  0.19330688    -0.60200
H3021       H  0.65219304  0.02838453  0.18332954     0.16800
O3022       O  0.59335238  0.03603864  0.18211452    -0.60300
H3023       H  0.59193996  0.04666998  0.19216683     0.43700
H3024       H  0.65301656  0.41488408  0.18314956     0.43700
C3025       C  0.75381066  0.29256342  0.01675559    -0.05400
C3026       C  0.76677108  0.26810772  0.00851079    -0.32800
C3027       C  0.76710133  0.26811789  0.99244336     0.36500
C3028       C  0.75390566  0.29270122  0.98420248    -0.05700
C3029       C  0.74136640  0.31745336  0.99241488    -0.32700
C3030       C  0.74110706  0.31747354  0.00854536     0.36400
H3031       H  0.77692069  0.24887279  0.01455109     0.16700
O3032       O  0.78058699  0.24395484  0.98492791    -0.60200
H3033       H  0.73097028  0.33645943  0.98631674     0.16800
O3034       O  0.72764730  0.34156863  0.01612024    -0.60300
H3035       H  0.70592078  0.33540600  0.01757942     0.43700
H3036       H  0.80215838  0.25036401  0.98319716     0.43700
C3037       C  0.74693837  0.28269380  0.10930238    -0.05400
C3038       C  0.73702087  0.25542492  0.11635890    -0.32800
C3039       C  0.73620853  0.25265203  0.13239181     0.36500
C3040       C  0.74569600  0.27731241  0.14175885    -0.05700
C3041       C  0.75516940  0.30473150  0.13471613    -0.32700
C3042       C  0.75603142  0.30750025  0.11868516     0.36400
H3043       H  0.72967516  0.23613804  0.10942445     0.16700
O3044       O  0.72597270  0.22571940  0.13874374    -0.60200
H3045       H  0.76267490  0.32394928  0.14165738     0.16800
O3046       O  0.76636948  0.33441983  0.11236184    -0.60300
H3047       H  0.78875520  0.33145470  0.11092800     0.43700
H3048       H  0.70375995  0.22894841  0.14060669     0.43700
C3049       C  0.74633632  0.95818243  0.98372765    -0.05400
C3050       C  0.74000726  0.98581180  0.99142221    -0.32800
C3051       C  0.73957756  0.98726944  0.00747625     0.36500
C3052       C  0.74546791  0.96070483  0.01629746    -0.05700
C3053       C  0.75111363  0.43289474  0.00862163    -0.32700
C3054       C  0.75152711  0.43145893  0.99252565     0.36400
H3055       H  0.73541252  0.00659116  0.98498055     0.16700
O3056       O  0.73274277  0.01474551  0.01437164    -0.60200
H3057       H  0.75569249  0.41216426  0.01510421     0.16800
O3058       O  0.75797782  0.40396947  0.98558167    -0.60300
H3059       H  0.73793143  0.39343148  0.98467146     0.43700
H3060       H  0.75226802  0.02635991  0.01446408     0.43700
C3061       C  0.74908042  0.96889747  0.10899379    -0.05400
C3062       C  0.74960256  0.44192245  0.11786493    -0.32800
C3063       C  0.74860073  0.44311557  0.13397282     0.36500
C3064       C  0.74718070  0.97170595  0.14158984    -0.05700
C3065       C  0.74668261  0.99861311  0.13269296    -0.32700
C3066       C  0.74774104  0.99745578  0.11664641     0.36400
H3067       H  0.75067312  0.41969658  0.11231815     0.16700
O3068       O  0.74942925  0.41615250  0.14209154    -0.60200
H3069       H  0.74561051  0.02090006  0.13817726     0.16800
O3070       O  0.74701978  0.02453886  0.10861597    -0.60300
H3071       H  0.76876222  0.03107103  0.10778497     0.43700
H3072       H  0.72775982  0.40934993  0.14277815     0.43700
C3073       C  0.90816995  0.28935707  0.06438253    -0.05400
C3074       C  0.89210304  0.26273553  0.06023799    -0.32800
C3075       C  0.86005598  0.26184963  0.06059795     0.36500
C3076       C  0.84318469  0.28814736  0.06487669    -0.05700
C3077       C  0.85923839  0.31460184  0.06944671    -0.32700
C3078       C  0.89143037  0.31517069  0.06946686     0.36400
H3079       H  0.90440117  0.24247300  0.05647818     0.16700
O3080       O  0.84552032  0.23541900  0.05612395    -0.60200
H3081       H  0.84683250  0.33484978  0.07314337     0.16800
O3082       O  0.90621330  0.34095496  0.07461717    -0.60300
H3083       H  0.90978197  0.33732791  0.08572471     0.43700
H3084       H  0.84489370  0.22236842  0.06546301     0.43700
C3085       C  0.59316545  0.28845197  0.06137132    -0.05400
C3086       C  0.60907451  0.26149653  0.05744496    -0.32800
C3087       C  0.64123815  0.26075351  0.05724719     0.36500
C3088       C  0.65820226  0.28723975  0.06116521    -0.05700
C3089       C  0.64224945  0.31419615  0.06494684    -0.32700
C3090       C  0.61018569  0.31494479  0.06515639     0.36400
H3091       H  0.59656689  0.24087612  0.05443095     0.16700
O3092       O  0.65571769  0.23394792  0.05328010    -0.60200
H3093       H  0.65465618  0.33482930  0.06803610     0.16800
O3094       O  0.59582882  0.34173022  0.06925735    -0.60300
H3095       H  0.59387318  0.34075694  0.08060452     0.43700
H3096       H  0.65819008  0.23496658  0.04195953     0.43700
C3097       C  0.49973916  0.29144490  0.01585678    -0.05400
C3098       C  0.99774162  0.26344527  0.00790364    -0.32800
C3099       C  0.99824404  0.26238130  0.99185200     0.36500
C3100       C  0.50103533  0.28969242  0.98323877    -0.05700
C3101       C  0.50296942  0.31774497  0.99115372    -0.32700
C3102       C  0.50242295  0.31880120  0.00727401     0.36400
H3103       H  0.99572065  0.24202101  0.01413967     0.16700
O3104       O  0.99620303  0.23434088  0.98477207    -0.60200
H3105       H  0.50515613  0.33899848  0.98482535     0.16800
O3106       O  0.50440646  0.34671052  0.01445905    -0.60300
H3107       H  0.52663767  0.35153858  0.01477455     0.43700
H3108       H  0.97392846  0.23049404  0.98357135     0.43700
C3109       C  0.50094317  0.28438642  0.10862703    -0.05400
C3110       C  0.49719212  0.25555054  0.11563665    -0.32800
C3111       C  0.49680582  0.25245289  0.13164259     0.36500
C3112       C  0.50038570  0.27848901  0.14112039    -0.05700
C3113       C  0.00367911  0.30741541  0.13411856    -0.32700
C3114       C  0.00375932  0.31053814  0.11808055     0.36400
H3115       H  0.49437934  0.23512035  0.10869046     0.16700
O3116       O  0.49217219  0.22387265  0.13783270    -0.60200
H3117       H  0.00623689  0.32784457  0.14108879     0.16800
O3118       O  0.00716198  0.33924038  0.11183612    -0.60300
H3119       H  0.98613950  0.34790785  0.11141004     0.43700
H3120       H  0.51274799  0.21416745  0.13808626     0.43700
C3121       C  0.84072024  0.46472418  0.06133560    -0.05400
C3122       C  0.85623083  0.43695062  0.05860509    -0.32800
C3123       C  0.88831645  0.43555177  0.05860242     0.36500
C3124       C  0.90573093  0.46224219  0.06136172    -0.05700
C3125       C  0.89023739  0.99011754  0.06386247    -0.32700
C3126       C  0.85812562  0.99154378  0.06382808     0.36400
H3127       H  0.84345657  0.41605939  0.05646055     0.16700
O3128       O  0.90230455  0.40802801  0.05559219    -0.60200
H3129       H  0.90303526  0.01097023  0.06605776     0.16800
O3130       O  0.84411459  0.01911188  0.06677447    -0.60300
H3131       H  0.84307819  0.02966495  0.05674074     0.43700
H3132       H  0.90441315  0.39798489  0.06574830     0.43700
C3133       C  0.59075084  0.46221273  0.06379921    -0.05400
C3134       C  0.60715182  0.43551205  0.06759861    -0.32800
C3135       C  0.63931049  0.43538854  0.06771921     0.36500
C3136       C  0.65574229  0.46233198  0.06398327    -0.05700
C3137       C  0.63930976  0.98906264  0.06037247    -0.32700
C3138       C  0.60724396  0.98922972  0.06029901     0.36400
H3139       H  0.59505439  0.41459171  0.07053283     0.16700
O3140       O  0.65433601  0.40899277  0.07187682    -0.60200
H3141       H  0.65133237  0.01000309  0.05740179     0.16800
O3142       O  0.59236799  0.01579818  0.05629846    -0.60300
H3143       H  0.59097092  0.02787079  0.06593382     0.43700
H3144       H  0.65482221  0.39620074  0.06245526     0.43700
C3145       C  0.00118514  0.95728359  0.01628845    -0.05400
C3146       C  0.50072209  0.42896103  0.00853981    -0.32800
C3147       C  0.50064328  0.42761312  0.99239870     0.36500
C3148       C  0.50104032  0.45491763  0.98366531    -0.05700
C3149       C  0.00204220  0.98311430  0.99146396    -0.32700
C3150       C  0.00232867  0.98449275  0.00748746     0.36400
H3151       H  0.50014189  0.40776286  0.01500679     0.16700
O3152       O  0.50042877  0.39951165  0.98534125    -0.60200
H3153       H  0.00258790  0.00450886  0.98512642     0.16800
O3154       O  0.00330154  0.01279574  0.01435799    -0.60300
H3155       H  0.02544834  0.01770560  0.01533051     0.43700
H3156       H  0.47849864  0.39347422  0.98487861     0.43700
C3157       C  0.99724432  0.96737880  0.10896783    -0.05400
C3158       C  0.49374404  0.44102276  0.11813158    -0.32800
C3159       C  0.49415770  0.44296778  0.13423261     0.36500
C3160       C  0.49796495  0.47169591  0.14150443    -0.05700
C3161       C  0.00157998  0.99793396  0.13232044    -0.32700
C3162       C  0.00122448  0.99603061  0.11629598     0.36400
H3163       H  0.49058606  0.41875971  0.11282687     0.16700
O3164       O  0.49004620  0.41672043  0.14268853    -0.60200
H3165       H  0.00481776  0.02024734  0.13755956     0.16800
O3166       O  0.00555369  0.02240012  0.10795875    -0.60300
H3167       H  0.98495210  0.03193508  0.10718128     0.43700
H3168       H  0.51066201  0.40720733  0.14337343     0.43700
C3169       C  0.78648307  0.24689144  0.48361943    -0.05400
C3170       C  0.81419711  0.24414360  0.49179779    -0.32800
C3171       C  0.81454140  0.24424617  0.50795445     0.36500
C3172       C  0.78684563  0.24704029  0.51630397    -0.05700
C3173       C  0.75926752  0.24977000  0.50809058    -0.32700
C3174       C  0.75885474  0.24965546  0.49203353     0.36400
H3175       H  0.83573310  0.24189792  0.48567323     0.16700
O3176       O  0.84208081  0.24125143  0.51539695    -0.60200
H3177       H  0.73764995  0.25216743  0.51412678     0.16800
O3178       O  0.73115596  0.25298721  0.48473681    -0.60300
H3179       H  0.72239424  0.23201374  0.48422591     0.43700
H3180       H  0.84849508  0.26257683  0.51777411     0.43700
C3181       C  0.78520925  0.40530788  0.43710702    -0.05400
C3182       C  0.81314476  0.38926037  0.43780981    -0.32800
C3183       C  0.81378454  0.35715034  0.43781841     0.36500
C3184       C  0.78614504  0.34030283  0.43729167    -0.05700
C3185       C  0.75825871  0.35635898  0.43643884    -0.32700
C3186       C  0.75758911  0.38843569  0.43633352     0.36400
H3187       H  0.83470215  0.40159699  0.43837528     0.16700
O3188       O  0.84160942  0.34258456  0.43853713    -0.60200
H3189       H  0.73670487  0.34404066  0.43578986     0.16800
O3190       O  0.72974970  0.40293190  0.43513294    -0.60300
H3191       H  0.72161219  0.40380859  0.44576872     0.43700
H3192       H  0.84803824  0.33999876  0.42767877     0.43700
C3193       C  0.78497562  0.09033616  0.43675898    -0.05400
C3194       C  0.75695737  0.10617432  0.43555597    -0.32800
C3195       C  0.75608723  0.13829902  0.43518670     0.36500
C3196       C  0.78356590  0.15533421  0.43620678    -0.05700
C3197       C  0.81156598  0.13945724  0.43709998    -0.32700
C3198       C  0.81242853  0.10741506  0.43742400     0.36400
H3199       H  0.73552421  0.09365633  0.43487038     0.16700
O3200       O  0.72818719  0.15266985  0.43397240    -0.60200
H3201       H  0.83305851  0.15188778  0.43774922     0.16800
O3202       O  0.84036458  0.09312922  0.43841113    -0.60300
H3203       H  0.84449481  0.09124740  0.44958053     0.43700
H3204       H  0.72452048  0.15481020  0.42277330     0.43700
C3205       C  0.78603185  0.49723701  0.51654336    -0.05400
C3206       C  0.81412819  0.49759534  0.50856402    -0.32800
C3207       C  0.81502986  0.49749413  0.49242101     0.36500
C3208       C  0.78746169  0.49705553  0.48386652    -0.05700
C3209       C  0.75947216  0.99626996  0.49188025    -0.32700
C3210       C  0.75856114  0.99612690  0.50794596     0.36400
H3211       H  0.83557657  0.49805342  0.51484151     0.16700
O3212       O  0.84301367  0.49746472  0.48519589    -0.60200
H3213       H  0.73793108  0.99568301  0.48567738     0.16800
O3214       O  0.73048558  0.99519352  0.51506220    -0.60300
H3215       H  0.72563494  0.97305650  0.51614025     0.43700
H3216       H  0.84926062  0.51932660  0.48469305     0.43700
C3217       C  0.46330648  0.25039164  0.48349237    -0.05400
C3218       C  0.93587999  0.25660711  0.49143051    -0.32800
C3219       C  0.93538796  0.25876917  0.50753673     0.36500
C3220       C  0.46251603  0.25424104  0.51611272    -0.05700
C3221       C  0.48992341  0.24831072  0.50814976    -0.32700
C3222       C  0.49050003  0.24625307  0.49210591     0.36400
H3223       H  0.91471675  0.26014430  0.48514421     0.16700
O3224       O  0.90822072  0.26539902  0.51473393    -0.60200
H3225       H  0.51114479  0.24478089  0.51438720     0.16800
O3226       O  0.51795611  0.24014732  0.48502264    -0.60300
H3227       H  0.51915389  0.21745169  0.48445075     0.43700
H3228       H  0.90739466  0.28811015  0.51523638     0.43700
C3229       C  0.96568223  0.34017266  0.43644592    -0.05400
C3230       C  0.49324736  0.35604855  0.43910608    -0.32800
C3231       C  0.49407193  0.38819841  0.43927438     0.36500
C3232       C  0.96694900  0.40523950  0.43678727    -0.05700
C3233       C  0.93947020  0.38932255  0.43402131    -0.32700
C3234       C  0.93864964  0.35725481  0.43388983     0.36400
H3235       H  0.51432081  0.34353573  0.44120450     0.16700
O3236       O  0.52140603  0.40258509  0.44228122    -0.60200
H3237       H  0.91832154  0.40174862  0.43197527     0.16800
O3238       O  0.91121194  0.34295702  0.43111197    -0.60300
H3239       H  0.90211953  0.33956960  0.44141950     0.43700
H3240       H  0.53204670  0.40382625  0.43222950     0.43700
C3241       C  0.96383277  0.09022225  0.43765641    -0.05400
C3242       C  0.48991378  0.10628238  0.43267949    -0.32800
C3243       C  0.49038697  0.13835766  0.43246527     0.36500
C3244       C  0.96446615  0.15514061  0.43733311    -0.05700
C3245       C  0.93827021  0.13910060  0.44225580    -0.32700
C3246       C  0.93782190  0.10695983  0.44245824     0.36400
H3247       H  0.51000557  0.09393615  0.42872444     0.16700
O3248       O  0.51592340  0.15300435  0.42688077    -0.60200
H3249       H  0.91814642  0.15149221  0.44613655     0.16800
O3250       O  0.91215944  0.09224088  0.44780851    -0.60300
H3251       H  0.89980848  0.08786197  0.43850476     0.43700
H3252       H  0.53053894  0.15363454  0.43560925     0.43700
C3253       C  0.46236926  0.49999176  0.48380273    -0.05400
C3254       C  0.93561641  0.49173733  0.49187416    -0.32800
C3255       C  0.93443575  0.49323917  0.50800800     0.36500
C3256       C  0.46034981  0.50300801  0.51642893    -0.05700
C3257       C  0.48681999  0.01176504  0.50831433    -0.32700
C3258       C  0.48800577  0.01036316  0.49225618     0.36400
H3259       H  0.91558871  0.48375424  0.48568204     0.16700
O3260       O  0.90821298  0.48401893  0.51539971    -0.60200
H3261       H  0.50687985  0.01986901  0.51444367     0.16800
O3262       O  0.51412753  0.02018239  0.48495112    -0.60300
H3263       H  0.52846345  0.00251233  0.48537050     0.43700
H3264       H  0.89489559  0.50244760  0.51565793     0.43700
C3265       C  0.76148511  0.25634493  0.26613540    -0.05400
C3266       C  0.78025623  0.27701698  0.25808307    -0.32800
C3267       C  0.77728793  0.28059568  0.24214371     0.36500
C3268       C  0.75607688  0.26255420  0.23393454    -0.05700
C3269       C  0.73793592  0.24124193  0.24192399    -0.32700
C3270       C  0.74009528  0.23848781  0.25794177     0.36400
H3271       H  0.79688697  0.29086075  0.26421165     0.16700
O3272       O  0.79613422  0.30082585  0.23460026    -0.60200
H3273       H  0.72167843  0.22703820  0.23575303     0.16800
O3274       O  0.72208322  0.21741297  0.26541220    -0.60300
H3275       H  0.70221203  0.22790195  0.26712386     0.43700
H3276       H  0.78597068  0.32105931  0.23559811     0.43700
C3277       C  0.77649618  0.24850630  0.35833655    -0.05400
C3278       C  0.75154668  0.25840505  0.36725615    -0.32800
C3279       C  0.75329388  0.25901455  0.38329982     0.36500
C3280       C  0.78040083  0.24954189  0.39083423    -0.05700
C3281       C  0.80547202  0.23984499  0.38192407    -0.32700
C3282       C  0.80371384  0.23929396  0.36583338     0.36400
H3283       H  0.73058132  0.26609750  0.36177977     0.16700
O3284       O  0.72863477  0.26990665  0.39145446    -0.60200
H3285       H  0.82641559  0.23221402  0.38743802     0.16800
O3286       O  0.82837464  0.22866115  0.35760582    -0.60300
H3287       H  0.84254289  0.24635215  0.35677543     0.43700
H3288       H  0.71421328  0.25238623  0.39219931     0.43700
C3289       C  0.77032345  0.40841416  0.31438608    -0.05400
C3290       C  0.74277187  0.39246474  0.31698140    -0.32800
C3291       C  0.74200455  0.36037643  0.31715620     0.36500
C3292       C  0.76909400  0.34341012  0.31452694    -0.05700
C3293       C  0.79683758  0.35934343  0.31247836    -0.32700
C3294       C  0.79764190  0.39144878  0.31238233     0.36400
H3295       H  0.72152718  0.40487445  0.31878304     0.16700
O3296       O  0.71449393  0.34596864  0.31971884    -0.60200
H3297       H  0.81807715  0.34691488  0.31069014     0.16800
O3298       O  0.82533352  0.40587117  0.31036602    -0.60300
H3299       H  0.82853820  0.40652552  0.29908873     0.43700
H3300       H  0.71323742  0.34336302  0.33102393     0.43700
C3301       C  0.76905620  0.15846212  0.31059815    -0.05400
C3302       C  0.74124634  0.14254891  0.30871010    -0.32800
C3303       C  0.74042175  0.11040249  0.30858274     0.36500
C3304       C  0.76771091  0.09338900  0.31054059    -0.05700
C3305       C  0.79553641  0.10934015  0.31228781    -0.32700
C3306       C  0.79637385  0.14144146  0.31239091     0.36400
H3307       H  0.71995244  0.15505356  0.30725018     0.16700
O3308       O  0.71273891  0.09597594  0.30659821    -0.60200
H3309       H  0.81685277  0.09691155  0.31382332     0.16800
O3310       O  0.82406904  0.15583026  0.31443540    -0.60300
H3311       H  0.82642279  0.15793176  0.32571619     0.43700
H3312       H  0.71061160  0.09329184  0.29533767     0.43700
C3313       C  0.75913635  0.99521738  0.26619144    -0.05400
C3314       C  0.74059374  0.47186687  0.26007842    -0.32800
C3315       C  0.73738525  0.46828120  0.24412671     0.36500
C3316       C  0.75202529  0.98887771  0.23399493    -0.05700
C3317       C  0.76978630  0.01282616  0.24017288    -0.32700
C3318       C  0.77363019  0.01588846  0.25610669     0.36400
H3319       H  0.72901982  0.45596353  0.26770387     0.16700
O3320       O  0.71904807  0.44522890  0.23858159    -0.60200
H3321       H  0.78121304  0.02892888  0.23260176     0.16800
O3322       O  0.79127873  0.03941055  0.26171122    -0.60300
H3323       H  0.77665852  0.05625754  0.26391250     0.43700
H3324       H  0.73211231  0.42662702  0.23863850     0.43700
C3325       C  0.78206816  0.49899838  0.39096300    -0.05400
C3326       C  0.75357456  0.99472197  0.38374766    -0.32800
C3327       C  0.75071559  0.99595295  0.36775828     0.36500
C3328       C  0.77669633  0.00152037  0.35844847    -0.05700
C3329       C  0.80534224  0.50550501  0.36562221    -0.32700
C3330       C  0.80818534  0.50423082  0.38169293     0.36400
H3331       H  0.73318633  0.99028043  0.39052264     0.16700
O3332       O  0.72242164  0.99068394  0.36137991    -0.60200
H3333       H  0.82566641  0.50974662  0.35876914     0.16800
O3334       O  0.83649799  0.50883348  0.38816752    -0.60300
H3335       H  0.84621480  0.48828506  0.38842194     0.43700
H3336       H  0.71167559  0.01071772  0.36177826     0.43700
C3337       C  0.48975561  0.25968087  0.26576055    -0.05400
C3338       C  0.51240667  0.24316562  0.25779641    -0.32800
C3339       C  0.51519204  0.24569266  0.24178814     0.36500
C3340       C  0.49571052  0.26557167  0.23355061    -0.05700
C3341       C  0.97379535  0.28289027  0.24156549    -0.32700
C3342       C  0.97036241  0.27967044  0.25749987     0.36400
H3343       H  0.52760774  0.22782571  0.26396881     0.16700
O3344       O  0.53716196  0.22879249  0.23431491    -0.60200
H3345       H  0.95876030  0.29841101  0.23539828     0.16800
O3346       O  0.94870420  0.29698204  0.26497211    -0.60300
H3347       H  0.92918331  0.28554111  0.26375552     0.43700
H3348       H  0.55498509  0.24276771  0.23320861     0.43700
C3349       C  0.47247654  0.24905350  0.35798090    -0.05400
C3350       C  0.49885963  0.24413456  0.36690242    -0.32800
C3351       C  0.49728142  0.24266439  0.38293863     0.36500
C3352       C  0.46889844  0.24653295  0.39057582    -0.05700
C3353       C  0.94235156  0.25098847  0.38166797    -0.32700
C3354       C  0.94395220  0.25236092  0.36555511     0.36400
H3355       H  0.52101659  0.24124888  0.36143590     0.16700
O3356       O  0.52386149  0.23760927  0.39098959    -0.60200
H3357       H  0.92026511  0.25392439  0.38719751     0.16800
O3358       O  0.91746377  0.25713921  0.35739023    -0.60300
H3359       H  0.91525776  0.27974257  0.35672866     0.43700
H3360       H  0.52530775  0.21500054  0.39207959     0.43700
C3361       C  0.98152379  0.34550207  0.31252286    -0.05400
C3362       C  0.50934315  0.36117633  0.31477312    -0.32800
C3363       C  0.51047253  0.39326593  0.31472778     0.36500
C3364       C  0.98342890  0.41046719  0.31237820    -0.05700
C3365       C  0.95565576  0.39478186  0.31002059    -0.32700
C3366       C  0.95455879  0.36271537  0.30996366     0.36400
H3367       H  0.53043932  0.34854852  0.31662825     0.16700
O3368       O  0.53823325  0.40744192  0.31689697    -0.60200
H3369       H  0.93458085  0.40738754  0.30806490     0.16800
O3370       O  0.92692664  0.34857313  0.30736363    -0.60300
H3371       H  0.92566680  0.34610251  0.29605021     0.43700
H3372       H  0.54033107  0.40965361  0.32819044     0.43700
C3373       C  0.98299710  0.09549367  0.31131272    -0.05400
C3374       C  0.95618929  0.11115662  0.30693292    -0.32800
C3375       C  0.95512816  0.14327649  0.30669346     0.36500
C3376       C  0.98128320  0.16051799  0.31078516    -0.05700
C3377       C  0.50807716  0.14483955  0.31517974    -0.32700
C3378       C  0.50911842  0.11274670  0.31546092     0.36400
H3379       H  0.93585987  0.09848465  0.30361318     0.16700
O3380       O  0.92856167  0.15746103  0.30211170    -0.60200
H3381       H  0.52838215  0.15747664  0.31857232     0.16800
O3382       O  0.53555137  0.09860568  0.32027629    -0.60300
H3383       H  0.54895051  0.09781865  0.31106877     0.43700
H3384       H  0.91550440  0.15829321  0.31144151     0.43700
C3385       C  0.49519055  0.49207206  0.23360259    -0.05400
C3386       C  0.97548895  0.47300819  0.24204883    -0.32800
C3387       C  0.97267524  0.47625354  0.25798584     0.36500
C3388       C  0.49049656  0.49814181  0.26585538    -0.05700
C3389       C  0.51090746  0.01668734  0.25749362    -0.32700
C3390       C  0.51287553  0.01420100  0.24142355     0.36400
H3391       H  0.96179247  0.45582485  0.23622495     0.16700
O3392       O  0.95340136  0.45697085  0.26587362    -0.60200
H3393       H  0.52495037  0.03346460  0.26340043     0.16800
O3394       O  0.53302335  0.03258890  0.23355069    -0.60300
H3395       H  0.52194991  0.05217457  0.23193369     0.43700
H3396       H  0.93279576  0.46641002  0.26500995     0.43700
C3397       C  0.46989098  0.49996965  0.39086573    -0.05400
C3398       C  0.49888025  0.99816981  0.38381377    -0.32800
C3399       C  0.50211084  0.99955233  0.36781719     0.36500
C3400       C  0.47602470  0.50265405  0.35831830    -0.05700
C3401       C  0.94697266  0.50456454  0.36534598    -0.32700
C3402       C  0.94375727  0.50320285  0.38140142     0.36400
H3403       H  0.51939256  0.99562636  0.39072665     0.16700
O3404       O  0.53098375  0.99721037  0.36164244    -0.60200
H3405       H  0.92652495  0.50706417  0.35838094     0.16800
O3406       O  0.91497256  0.50559054  0.38766063    -0.60300
H3407       H  0.90679456  0.48432506  0.38776797     0.43700
H3408       H  0.53918419  0.01839073  0.36162329     0.43700
C3409       C  0.75179021  0.28367955  0.85876422    -0.05400
C3410       C  0.74858816  0.25707611  0.86773105    -0.32800
C3411       C  0.74903803  0.25832946  0.88377439     0.36500
C3412       C  0.75232559  0.28674410  0.89141257    -0.05700
C3413       C  0.75584734  0.31345478  0.88248229    -0.32700
C3414       C  0.75568206  0.31210444  0.86633609     0.36400
H3415       H  0.74572358  0.23489501  0.86230341     0.16700
O3416       O  0.74570047  0.23146780  0.89182255    -0.60200
H3417       H  0.75883118  0.33552514  0.88800848     0.16800
O3418       O  0.75994827  0.33864657  0.85814748    -0.60300
H3419       H  0.73906650  0.34709369  0.85658848     0.43700
H3420       H  0.76667720  0.22277113  0.89257130     0.43700
C3421       C  0.75221359  0.96082214  0.89096576    -0.05400
C3422       C  0.74441515  0.43471229  0.88229884    -0.32800
C3423       C  0.74385824  0.43573254  0.86616129     0.36500
C3424       C  0.75156568  0.96308724  0.85836119    -0.05700
C3425       C  0.75995958  0.98889103  0.86706034    -0.32700
C3426       C  0.76026515  0.98800006  0.88311473     0.36400
H3427       H  0.73813775  0.41355178  0.88803458     0.16700
O3428       O  0.73541457  0.40995564  0.85819222    -0.60200
H3429       H  0.76642644  0.01007873  0.86140411     0.16800
O3430       O  0.76929303  0.01373757  0.89097623    -0.60300
H3431       H  0.75080400  0.02699688  0.89142973     0.43700
H3432       H  0.71280885  0.41128236  0.85722509     0.43700
C3433       C  0.84459953  0.27512544  0.81289903    -0.05400
C3434       C  0.86063222  0.30305260  0.81215619    -0.32800
C3435       C  0.89276174  0.30363700  0.81197461     0.36500
C3436       C  0.90954977  0.27589691  0.81241419    -0.05700
C3437       C  0.89347197  0.24804927  0.81317764    -0.32700
C3438       C  0.86144115  0.24745197  0.81335519     0.36400
H3439       H  0.84827125  0.32461593  0.81176948     0.16700
O3440       O  0.90737152  0.33148207  0.81126294    -0.60200
H3441       H  0.90574068  0.22643375  0.81351564     0.16800
O3442       O  0.84695481  0.21953812  0.81396819    -0.60300
H3443       H  0.84429727  0.21326330  0.80310106     0.43700
H3444       H  0.90976785  0.33805798  0.82209965     0.43700
C3445       C  0.59454580  0.27363009  0.81085527    -0.05400
C3446       C  0.61063177  0.24568816  0.81061670    -0.32800
C3447       C  0.64279092  0.24504953  0.81084637     0.36500
C3448       C  0.65963411  0.27273647  0.81131062    -0.05700
C3449       C  0.64352171  0.30064491  0.81134919    -0.32700
C3450       C  0.61144595  0.30130443  0.81104883     0.36400
H3451       H  0.59827958  0.22412600  0.81029822     0.16700
O3452       O  0.65740237  0.21718722  0.81036555    -0.60200
H3453       H  0.65579581  0.32225465  0.81166785     0.16800
O3454       O  0.59697644  0.32926196  0.81125021    -0.60300
H3455       H  0.59588435  0.33573385  0.80034161     0.43700
H3456       H  0.65812212  0.21006875  0.82118011     0.43700
C3457       C  0.50192155  0.28564244  0.89039797    -0.05400
C3458       C  0.50319646  0.25694362  0.88310007    -0.32800
C3459       C  0.50326840  0.25450880  0.86708706     0.36500
C3460       C  0.50230101  0.28116205  0.85782831    -0.05700
C3461       C  0.00075574  0.30992661  0.86509614    -0.32700
C3462       C  0.00064781  0.31230899  0.88118780     0.36400
H3463       H  0.50416695  0.23603994  0.88982489     0.16700
O3464       O  0.50468119  0.22578838  0.86067989    -0.60200
H3465       H  0.99969711  0.33074157  0.85830612     0.16800
O3466       O  0.99892327  0.34084149  0.88773518    -0.60300
H3467       H  0.02047968  0.34799157  0.88848408     0.43700
H3468       H  0.48306036  0.21879056  0.86001086     0.43700
C3469       C  0.84344644  0.47235831  0.81181487    -0.05400
C3470       C  0.85874874  0.00039646  0.81403590    -0.32800
C3471       C  0.89080063  0.00194604  0.81416700     0.36500
C3472       C  0.90838440  0.97510170  0.81203445    -0.05700
C3473       C  0.89307713  0.44713560  0.80952535    -0.32700
C3474       C  0.86100718  0.44562602  0.80929770     0.36400
H3475       H  0.84585003  0.02135720  0.81580097     0.16700
O3476       O  0.90455834  0.02993806  0.81625027    -0.60200
H3477       H  0.90597699  0.42620342  0.80767396     0.16800
O3478       O  0.84721275  0.41783396  0.80665921    -0.60300
H3479       H  0.84556518  0.41620980  0.79531999     0.43700
H3480       H  0.90590913  0.03261381  0.82754580     0.43700
C3481       C  0.59342968  0.97531753  0.81143528    -0.05400
C3482       C  0.60870605  0.44696046  0.81026530    -0.32800
C3483       C  0.64078442  0.44526029  0.81035582     0.36500
C3484       C  0.65843103  0.47227191  0.81161616    -0.05700
C3485       C  0.64315147  0.00063915  0.81265743    -0.32700
C3486       C  0.61108307  0.00235054  0.81248054     0.36400
H3487       H  0.59576973  0.42581698  0.80932410     0.16700
O3488       O  0.65450399  0.41704126  0.80907830    -0.60200
H3489       H  0.65608557  0.02178510  0.81357842     0.16800
O3490       O  0.59737676  0.03059916  0.81357124    -0.60300
H3491       H  0.59598225  0.03821027  0.80285562     0.43700
H3492       H  0.65537987  0.40887739  0.81969211     0.43700
C3493       C  0.50048056  0.46214244  0.89087199    -0.05400
C3494       C  0.00469374  0.99098893  0.88394373    -0.32800
C3495       C  0.00561772  0.99418599  0.86794832     0.36500
C3496       C  0.50191762  0.46826489  0.85838212    -0.05700
C3497       C  0.49803514  0.43935519  0.86530204    -0.32700
C3498       C  0.49724648  0.43617912  0.88133680     0.36400
H3499       H  0.00748727  0.01134104  0.89094912     0.16700
O3500       O  0.00996061  0.02290107  0.86186264    -0.60200
H3501       H  0.49528330  0.41903575  0.85827080     0.16800
O3502       O  0.49327408  0.40753172  0.88751302    -0.60300
H3503       H  0.47073666  0.40467066  0.88817101     0.43700
H3504       H  0.03253245  0.02527668  0.86098184     0.43700
C3505       C  0.76208664  0.25650893  0.73446802    -0.05400
C3506       C  0.73774434  0.27353885  0.74078580    -0.32800
C3507       C  0.73516692  0.27765405  0.75670387     0.36500
C3508       C  0.75648903  0.26378913  0.76663711    -0.05700
C3509       C  0.78048508  0.24623532  0.76040874    -0.32700
C3510       C  0.78364023  0.24287953  0.74445012     0.36400
H3511       H  0.72091506  0.28419231  0.73333247     0.16700
O3512       O  0.71106127  0.29429067  0.76248211    -0.60200
H3513       H  0.79714809  0.23553883  0.76794507     0.16800
O3514       O  0.80771151  0.22606591  0.73876746    -0.60300
H3515       H  0.79976640  0.20483136  0.73779922     0.43700
H3516       H  0.71788690  0.31598371  0.76210386     0.43700
C3517       C  0.77300344  0.24826855  0.64184708    -0.05400
C3518       C  0.80181730  0.24647978  0.63462381    -0.32800
C3519       C  0.80450858  0.24680418  0.61856017     0.36500
C3520       C  0.77805694  0.24884101  0.60923449    -0.05700
C3521       C  0.74921009  0.25046213  0.61645711    -0.32700
C3522       C  0.74651220  0.25009685  0.63252110     0.36400
H3523       H  0.82253987  0.24485298  0.64144791     0.16700
O3524       O  0.83318114  0.24453829  0.61215505    -0.60200
H3525       H  0.72848126  0.25209316  0.60963661     0.16800
O3526       O  0.71781610  0.25224511  0.63891930    -0.60300
H3527       H  0.71001949  0.23088215  0.63931590     0.43700
H3528       H  0.84121696  0.26580699  0.61192993     0.43700
C3529       C  0.76999906  0.40804977  0.68695514    -0.05400
C3530       C  0.74202134  0.39237951  0.68529147    -0.32800
C3531       C  0.74089864  0.36029248  0.68533924     0.36500
C3532       C  0.76816205  0.34307280  0.68692881    -0.05700
C3533       C  0.79615406  0.35875785  0.68850713    -0.32700
C3534       C  0.79726628  0.39082754  0.68852283     0.36400
H3535       H  0.72074878  0.40500922  0.68404197     0.16700
O3536       O  0.71297768  0.34613659  0.68371985    -0.60200
H3537       H  0.81742106  0.34615700  0.68985291     0.16800
O3538       O  0.82511082  0.40496197  0.69050098    -0.60300
H3539       H  0.83423005  0.40614990  0.68007802     0.43700
H3540       H  0.70445817  0.34484381  0.69426736     0.43700
C3541       C  0.77030869  0.09300888  0.69001614    -0.05400
C3542       C  0.74212791  0.10870576  0.69007882    -0.32800
C3543       C  0.74096466  0.14079332  0.69005147     0.36500
C3544       C  0.76835438  0.15806852  0.68986893    -0.05700
C3545       C  0.79656858  0.14238314  0.68992613    -0.32700
C3546       C  0.79772893  0.11026627  0.68992864     0.36400
H3547       H  0.72071130  0.09608387  0.69011536     0.16700
O3548       O  0.71282478  0.15489461  0.68993797    -0.60200
H3549       H  0.81797747  0.15501941  0.68980357     0.16800
O3550       O  0.82585534  0.09612474  0.68979355    -0.60300
H3551       H  0.83140426  0.09428409  0.67878021     0.43700
H3552       H  0.70691069  0.15675649  0.70089904     0.43700
C3553       C  0.76293080  0.99219195  0.73449462    -0.05400
C3554       C  0.73762218  0.00472029  0.74231858    -0.32800
C3555       C  0.73371201  0.99992780  0.75812403     0.36500
C3556       C  0.75476989  0.98166977  0.76628014    -0.05700
C3557       C  0.77971394  0.46863230  0.75847388    -0.32700
C3558       C  0.78422110  0.47422384  0.74276868     0.36400
H3559       H  0.72095716  0.01852205  0.73618404     0.16700
O3560       O  0.70914863  0.01304194  0.76548449    -0.60200
H3561       H  0.79621106  0.45471793  0.76466745     0.16800
O3562       O  0.80889380  0.46108726  0.73552001    -0.60300
H3563       H  0.82622881  0.47537892  0.73733294     0.43700
H3564       H  0.69306642  0.99694660  0.76563692     0.43700
C3565       C  0.78119461  0.50046111  0.60951988    -0.05400
C3566       C  0.75240712  0.00191813  0.61678464    -0.32800
C3567       C  0.74985168  0.00329253  0.63280507     0.36500
C3568       C  0.77641762  0.50292841  0.64210790    -0.05700
C3569       C  0.80527664  0.50188346  0.63486392    -0.32700
C3570       C  0.80782152  0.50060003  0.61878357     0.36400
H3571       H  0.73153993  0.00204035  0.61002284     0.16700
O3572       O  0.72109021  0.00455673  0.63918603    -0.60200
H3573       H  0.82607444  0.50173788  0.64167870     0.16800
O3574       O  0.83650762  0.49973484  0.61230826    -0.60300
H3575       H  0.84221987  0.47771996  0.61211142     0.43700
H3576       H  0.71616706  0.02672652  0.63989026     0.43700
C3577       C  0.49152015  0.25633777  0.73363090    -0.05400
C3578       C  0.51264854  0.27772855  0.73946962    -0.32800
C3579       C  0.51555691  0.28233845  0.75535109     0.36500
C3580       C  0.49788644  0.26472982  0.76562304    -0.05700
C3581       C  0.97751449  0.24265898  0.75976838    -0.32700
C3582       C  0.97405009  0.23859661  0.74392030     0.36400
H3583       H  0.52647257  0.29136350  0.73168520     0.16700
O3584       O  0.53652270  0.30320795  0.76072294    -0.60200
H3585       H  0.96385038  0.22880366  0.76752807     0.16800
O3586       O  0.95376315  0.21699443  0.73861540    -0.60300
H3587       H  0.96622502  0.19830880  0.73687546     0.43700
H3588       H  0.52587658  0.32327365  0.76035497     0.43700
C3589       C  0.47282503  0.24707994  0.64158673    -0.05400
C3590       C  0.94393012  0.24464726  0.63446758    -0.32800
C3591       C  0.94102420  0.24589389  0.61837748     0.36500
C3592       C  0.46727063  0.25001186  0.60904418    -0.05700
C3593       C  0.49606940  0.25211897  0.61620464    -0.32700
C3594       C  0.49900568  0.25082225  0.63218353     0.36400
H3595       H  0.92344804  0.24175572  0.64137843     0.16700
O3596       O  0.91238618  0.24331894  0.61197671    -0.60200
H3597       H  0.51667200  0.25513132  0.60939700     0.16800
O3598       O  0.52777342  0.25353002  0.63843034    -0.60300
H3599       H  0.53104934  0.27589477  0.63973915     0.43700
H3600       H  0.90908804  0.22098481  0.61059044     0.43700
C3601       C  0.97965414  0.34163803  0.68615768    -0.05400
C3602       C  0.00385442  0.35769041  0.67916260    -0.32800
C3603       C  0.00437498  0.38981874  0.67900879     0.36500
C3604       C  0.48036031  0.40660720  0.68591066    -0.05700
C3605       C  0.45595404  0.39056778  0.69273923    -0.32700
C3606       C  0.45545081  0.35843717  0.69292028     0.36400
H3607       H  0.02249432  0.34530477  0.67373318     0.16700
O3608       O  0.02806554  0.40452744  0.67168889    -0.60200
H3609       H  0.43743339  0.40295629  0.69827094     0.16800
O3610       O  0.43189163  0.34378333  0.70037704    -0.60300
H3611       H  0.41480636  0.34313692  0.69285707     0.43700
H3612       H  0.04508565  0.40487594  0.67923020     0.43700
C3613       C  0.48347994  0.09149252  0.69101560    -0.05400
C3614       C  0.95552874  0.10753079  0.69062363    -0.32800
C3615       C  0.95475880  0.13961840  0.69038972     0.36500
C3616       C  0.98235552  0.15665284  0.69059349    -0.05700
C3617       C  0.51031776  0.14065648  0.69154904    -0.32700
C3618       C  0.51104914  0.10846709  0.69186720     0.36400
H3619       H  0.93396791  0.09518233  0.69020410     0.16700
O3620       O  0.92674948  0.15396050  0.68988454    -0.60200
H3621       H  0.53182013  0.15310310  0.69195278     0.16800
O3622       O  0.53892649  0.09396419  0.69274973    -0.60300
H3623       H  0.54310170  0.09180142  0.70389565     0.43700
H3624       H  0.92137897  0.15502728  0.67882793     0.43700
C3625       C  0.99022781  0.99167670  0.73413616    -0.05400
C3626       C  0.51285908  0.47215783  0.74021284    -0.32800
C3627       C  0.51580161  0.46814082  0.75612338     0.36500
C3628       C  0.49667146  0.48458847  0.76620182    -0.05700
C3629       C  0.97444076  0.00452275  0.76015727    -0.32700
C3630       C  0.97087465  0.00786086  0.74426034     0.36400
H3631       H  0.52797383  0.45957292  0.73259207     0.16700
O3632       O  0.53821326  0.44907496  0.76172347    -0.60200
H3633       H  0.95946377  0.01722047  0.76780439     0.16800
O3634       O  0.94865643  0.02726633  0.73875758    -0.60300
H3635       H  0.95888592  0.04748617  0.73771601     0.43700
H3636       H  0.52905153  0.42824972  0.76155515     0.43700
C3637       C  0.97420027  0.00297861  0.64193225    -0.05400
C3638       C  0.94511056  0.00519390  0.63500038    -0.32800
C3639       C  0.94187726  0.00565299  0.61894007     0.36500
C3640       C  0.46800974  0.50371293  0.60937796    -0.05700
C3641       C  0.49704763  0.50144393  0.61633964    -0.32700
C3642       C  0.50028663  0.50092428  0.63234564     0.36400
H3643       H  0.92465634  0.00661655  0.64204476     0.16700
O3644       O  0.91298132  0.00759676  0.61278056    -0.60200
H3645       H  0.51756321  0.49983808  0.60934966     0.16800
O3646       O  0.52921155  0.49834743  0.63842652    -0.60300
H3647       H  0.53303035  0.47597084  0.63924612     0.43700
H3648       H  0.90839194  0.02985191  0.61228712     0.43700
O3649       O  0.51054414  0.99404756  0.70873809    -0.71700
O3650       O  0.50294452  0.50267264  0.66547562    -0.71900
O3651       O  0.50775162  0.54202442  0.68924240    -0.71700
O3652       O  0.50571563  0.95524620  0.68503266    -0.71800
O3653       O  0.95647582  0.95572383  0.68875903    -0.71700
O3654       O  0.95802103  0.54287408  0.68999596    -0.71700
O3655       O  0.95340619  0.00058719  0.66751046    -0.71700
O3656       O  0.96107822  0.49803337  0.71108855    -0.71900
V3657       V  0.50578751  0.49858309  0.68716127     1.35200
V3658       V  0.95816396  0.49931637  0.68928451     1.35200
C3659       C  0.98712539  0.49484345  0.71730565     0.77600
C3660       C  0.97695532  0.50216396  0.65900700     0.77600
C3661       C  0.48317178  0.55739226  0.69013254     0.77500
C3662       C  0.48085004  0.94059007  0.68650036     0.77500
O3663       O  0.96148345  0.74960218  0.71090600    -0.71700
O3664       O  0.95218106  0.74836591  0.66730753    -0.71900
O3665       O  0.95724914  0.70548213  0.68953061    -0.71700
O3666       O  0.95603668  0.79241897  0.68892453    -0.71800
O3667       O  0.50505376  0.79301195  0.68453896    -0.71700
O3668       O  0.50696357  0.70595193  0.68865349    -0.71700
O3669       O  0.50163202  0.74558436  0.66499691    -0.71700
O3670       O  0.51082833  0.75401058  0.70809207    -0.71900
V3671       V  0.95765199  0.74893576  0.68910441     1.35200
V3672       V  0.50518836  0.74953357  0.68660203     1.35200
C3673       C  0.48776607  0.75300604  0.71686593     0.77600
C3674       C  0.47555306  0.74676494  0.65866666     0.77600
C3675       C  0.98223073  0.69075924  0.68959005     0.77500
C3676       C  0.98024962  0.80763215  0.68651819     0.77500
O3677       O  0.79813438  0.50306208  0.66753607    -0.71700
O3678       O  0.79186314  0.99698595  0.71113849    -0.71900
O3679       O  0.79503444  0.95691109  0.68797009    -0.71700
O3680       O  0.79513277  0.54381283  0.69075788    -0.71800
O3681       O  0.74563491  0.54415099  0.68819730    -0.71700
O3682       O  0.74530322  0.95707654  0.68706975    -0.71700
O3683       O  0.74222362  0.49932767  0.70938144    -0.71700
O3684       O  0.74852132  0.00171429  0.66588303    -0.71900
V3685       V  0.79410493  0.00030389  0.68932628     1.35200
V3686       V  0.74639420  0.00061996  0.68766302     1.35200
C3687       C  0.77429098  0.00274671  0.65921127     0.77600
C3688       C  0.76588875  0.99661633  0.71766781     0.77600
C3689       C  0.77016138  0.94207111  0.68730266     0.77500
C3690       C  0.77043990  0.55892753  0.68969438     0.77500
O3691       O  0.74057164  0.75344694  0.70932067    -0.71700
O3692       O  0.74552760  0.74814831  0.66581072    -0.71900
O3693       O  0.74315734  0.70706489  0.68886894    -0.71700
O3694       O  0.74318109  0.79406329  0.68632114    -0.71800
O3695       O  0.79273598  0.79415403  0.68858711    -0.71700
O3696       O  0.79290349  0.70712268  0.68943424    -0.71700
O3697       O  0.79517528  0.74983055  0.66712854    -0.71700
O3698       O  0.79026036  0.75150306  0.71087886    -0.71900
V3699       V  0.74407787  0.75060244  0.68760974     1.35200
V3700       V  0.79182695  0.75063311  0.68897483     1.35200
C3701       C  0.76449201  0.75346567  0.71754009     0.77600
C3702       C  0.77113128  0.74867317  0.65896307     0.77600
C3703       C  0.76805390  0.69214806  0.68940999     0.77500
C3704       C  0.76795631  0.80903792  0.68724611     0.77500
O3705       O  0.99870394  0.50468294  0.79152797    -0.71700
O3706       O  0.50249382  0.49700784  0.83488539    -0.71900
O3707       O  0.54445738  0.50085353  0.81232828    -0.71700
O3708       O  0.95720101  0.50040590  0.81397163    -0.71800
O3709       O  0.95750555  0.95106667  0.81074572    -0.71700
O3710       O  0.54437073  0.95114534  0.81119758    -0.71700
O3711       O  0.00053807  0.94747099  0.83282960    -0.71700
O3712       O  0.50138983  0.95510299  0.78922231    -0.71900
V3713       V  0.50078802  0.49979521  0.81314737     1.35200
V3714       V  0.50095860  0.95214769  0.81105370     1.35200
C3715       C  0.49932840  0.98126273  0.78299433     0.77600
C3716       C  0.50171809  0.97102397  0.84133442     0.77600
C3717       C  0.55936038  0.47593582  0.81164583     0.77500
C3718       C  0.94241870  0.47564417  0.81229012     0.77500
O3719       O  0.00291604  0.79480922  0.78857423    -0.71700
O3720       O  0.50156310  0.80271850  0.83229799    -0.71900
O3721       O  0.54566914  0.79853325  0.81073143    -0.71700
O3722       O  0.95883127  0.79965078  0.81011034    -0.71800
O3723       O  0.95811029  0.75041152  0.81371961    -0.71700
O3724       O  0.54531534  0.74881259  0.81154823    -0.71700
O3725       O  0.00374080  0.75318358  0.83424369    -0.71700
O3726       O  0.49912917  0.74535117  0.79105828    -0.71900
V3727       V  0.50226853  0.79801371  0.81046126     1.35200
V3728       V  0.50165012  0.75039651  0.81259991     1.35200
C3729       C  0.50036789  0.76858095  0.78242482     0.77600
C3730       C  0.50260043  0.77903772  0.84075588     0.77600
C3731       C  0.56044956  0.77361634  0.81102234     0.77500
C3732       C  0.94355165  0.77534920  0.81207545     0.77500
O3733       O  0.74955805  0.94235462  0.83268348    -0.71700
O3734       O  0.75308165  0.95129717  0.78911637    -0.71900
O3735       O  0.79466156  0.94677461  0.81157620    -0.71700
O3736       O  0.70742253  0.94694125  0.81009334    -0.71800
O3737       O  0.70747485  0.49613261  0.81384783    -0.71700
O3738       O  0.79435399  0.49648282  0.81281298    -0.71700
O3739       O  0.74986279  0.50079876  0.79169717    -0.71700
O3740       O  0.75203264  0.49184018  0.83502501    -0.71900
V3741       V  0.75108543  0.94773064  0.81092129     1.35200
V3742       V  0.75090674  0.49531967  0.81331619     1.35200
C3743       C  0.75092849  0.46569565  0.84131945     0.77600
C3744       C  0.75212532  0.47766539  0.78303763     0.77600
C3745       C  0.80943261  0.97173914  0.81207428     0.77500
C3746       C  0.69250015  0.97162082  0.81186940     0.77500
O3747       O  0.75024723  0.75446176  0.83552991    -0.71700
O3748       O  0.75543513  0.74463577  0.79225668    -0.71900
O3749       O  0.79587334  0.75046473  0.81504609    -0.71700
O3750       O  0.70907744  0.74861620  0.81268728    -0.71800
O3751       O  0.70825615  0.79829911  0.81136580    -0.71700
O3752       O  0.79547221  0.79952066  0.81086178    -0.71700
O3753       O  0.75138583  0.79400672  0.78938796    -0.71700
O3754       O  0.75243207  0.80389116  0.83292623    -0.71900
V3755       V  0.75255966  0.75051551  0.81384374     1.35200
V3756       V  0.75185657  0.79803227  0.81119047     1.35200
C3757       C  0.75142332  0.78073070  0.84170146     0.77600
C3758       C  0.75417175  0.76765009  0.78344474     0.77600
C3759       C  0.81059375  0.77508260  0.81297795     0.77500
C3760       C  0.69371635  0.77316635  0.81179711     0.77500
O3761       O  0.95508185  0.50423238  0.33277825    -0.71700
O3762       O  0.96204764  0.00089846  0.28922024    -0.71900
O3763       O  0.95866468  0.95933643  0.31170356    -0.71700
O3764       O  0.95852404  0.54638241  0.31017225    -0.71800
O3765       O  0.50797146  0.54660356  0.31300105    -0.71700
O3766       O  0.50838733  0.95950810  0.31278834    -0.71700
O3767       O  0.51170764  0.50327191  0.29106209    -0.71700
O3768       O  0.50465578  0.00274125  0.33467456    -0.71900
V3769       V  0.95953529  0.00281346  0.31100417     1.35200
V3770       V  0.50722762  0.00306792  0.31285021     1.35200
C3771       C  0.47871460  0.00335740  0.34122501     0.77600
C3772       C  0.48802301  0.00118665  0.28272978     0.77600
C3773       C  0.98357611  0.94449485  0.31230560     0.77500
C3774       C  0.98321084  0.56143290  0.31151298     0.77500
O3775       O  0.95211392  0.75057887  0.33230392    -0.71700
O3776       O  0.96047911  0.75623703  0.28889285    -0.68700
O3777       O  0.95644195  0.70964647  0.30930498    -0.71700
O3778       O  0.95635545  0.79664477  0.31181045    -0.71800
O3779       O  0.50604321  0.79644332  0.31321681    -0.71700
O3780       O  0.50577032  0.70940554  0.31261187    -0.71700
O3781       O  0.51005486  0.75370498  0.29112204    -0.71700
O3782       O  0.50162844  0.75208806  0.33466259    -0.71900
V3783       V  0.95730152  0.75319868  0.31062236     1.35200
V3784       V  0.50492504  0.75290722  0.31286417     1.35200
C3785       C  0.47543896  0.75068537  0.34094864     0.77600
C3786       C  0.48665377  0.75624400  0.28261045     0.77600
C3787       C  0.98108767  0.69458571  0.31082657     0.77500
C3788       C  0.98124210  0.81147279  0.31256700     0.77500
O3789       O  0.79762594  0.00145144  0.33282612    -0.71700
O3790       O  0.78904561  0.50082190  0.28913847    -0.71900
O3791       O  0.79286216  0.54468320  0.31079871    -0.71700
O3792       O  0.79413554  0.95764261  0.31123436    -0.71800
O3793       O  0.74496525  0.95705263  0.31507403    -0.71700
O3794       O  0.74312901  0.54401688  0.31173427    -0.71700
O3795       O  0.73962338  0.99677748  0.29174383    -0.71700
O3796       O  0.74810289  0.50354951  0.33499463    -0.71900
V3797       V  0.79250204  0.50117088  0.31102493     1.35200
V3798       V  0.74491177  0.50046523  0.31333228     1.35200
C3799       C  0.77411689  0.50240788  0.34139115     0.77600
C3800       C  0.76280991  0.49786551  0.28304188     0.77600
C3801       C  0.76779495  0.55929856  0.31098641     0.77500
C3802       C  0.76987177  0.94242944  0.31356986     0.77500
O3803       O  0.74061309  0.75185291  0.29141011    -0.71700
O3804       O  0.74776197  0.74989554  0.33493599    -0.71900
O3805       O  0.74406282  0.79440695  0.31379935    -0.71700
O3806       O  0.74426889  0.70728135  0.31262309    -0.71800
O3807       O  0.79372345  0.70764493  0.30975727    -0.71700
O3808       O  0.79378429  0.79457420  0.31265690    -0.71700
O3809       O  0.79735612  0.74825624  0.33285883    -0.71700
O3810       O  0.79025199  0.75434650  0.28943697    -0.71900
V3811       V  0.74512251  0.75085048  0.31314317     1.35200
V3812       V  0.79281600  0.75114160  0.31119673     1.35200
C3813       C  0.76422464  0.75393856  0.28301687     0.77600
C3814       C  0.77380467  0.74869191  0.34134481     0.77600
C3815       C  0.76891315  0.80940132  0.31368073     0.77500
C3816       C  0.76905330  0.69252777  0.31096819     0.77500
O3817       O  0.93895907  0.49630152  0.45881128    -0.71700
O3818       O  0.94230616  0.99873661  0.41495865    -0.71900
O3819       O  0.94150834  0.95385055  0.43626578    -0.71700
O3820       O  0.93965720  0.54089062  0.43752752    -0.71800
O3821       O  0.48944283  0.54182326  0.43751877    -0.71700
O3822       O  0.49113322  0.95470500  0.43805561    -0.71700
O3823       O  0.49200521  0.49793051  0.41601043    -0.71700
O3824       O  0.48862243  0.99901757  0.45959682    -0.71900
V3825       V  0.94154189  0.99739545  0.43690266     1.35200
V3826       V  0.48932173  0.99828932  0.43778587     1.35200
C3827       C  0.46330851  0.99821201  0.46670563     0.77600
C3828       C  0.46783145  0.99877287  0.40797352     0.77600
C3829       C  0.96660463  0.93932558  0.43706248     0.77500
C3830       C  0.96425945  0.55625263  0.43761583     0.77500
O3831       O  0.93896069  0.74922426  0.45860830    -0.71700
O3832       O  0.94156142  0.74648590  0.41469946    -0.71900
O3833       O  0.93971347  0.70416042  0.43733059    -0.71700
O3834       O  0.94053371  0.79125867  0.43598538    -0.71800
O3835       O  0.49021040  0.79102844  0.43735069    -0.71700
O3836       O  0.48950584  0.70392942  0.43737665    -0.71700
O3837       O  0.49126339  0.74731882  0.41565410    -0.71700
O3838       O  0.48866726  0.74760809  0.45913501    -0.71900
V3839       V  0.94110179  0.74775393  0.43667136     1.35200
V3840       V  0.48890186  0.74744991  0.43737184     1.35200
C3841       C  0.46356713  0.74890786  0.46637922     0.77600
C3842       C  0.46706565  0.74666990  0.40767454     0.77600
C3843       C  0.96455134  0.68913438  0.43735015     0.77500
C3844       C  0.96544497  0.80609101  0.43656705     0.77500
O3845       O  0.80896690  0.49848804  0.41513281    -0.71700
O3846       O  0.81150509  0.99721974  0.45890486    -0.71900
O3847       O  0.81022262  0.95422605  0.43673179    -0.71700
O3848       O  0.81006879  0.54135854  0.43721852    -0.71800
O3849       O  0.76031413  0.54133935  0.43752152    -0.71700
O3850       O  0.76051098  0.95433856  0.43785932    -0.71700
O3851       O  0.76177458  0.49800879  0.45955412    -0.71700
O3852       O  0.75923908  0.99756094  0.41594302    -0.71900
V3853       V  0.80925001  0.99781989  0.43702423     1.35200
V3854       V  0.76144310  0.99780615  0.43772321     1.35200
C3855       C  0.78361859  0.99827173  0.40804260     0.77600
C3856       C  0.78702450  0.99744108  0.46673954     0.77600
C3857       C  0.78530373  0.93934939  0.43722403     0.77500
C3858       C  0.78516742  0.55628677  0.43721617     0.77500
O3859       O  0.76121303  0.74707993  0.45925168    -0.71700
O3860       O  0.75820356  0.74952509  0.41586608    -0.71900
O3861       O  0.75907165  0.70466900  0.43692553    -0.71700
O3862       O  0.76067547  0.79175567  0.43807080    -0.71800
O3863       O  0.81036922  0.79090510  0.43681045    -0.71700
O3864       O  0.80882750  0.70392199  0.43654267    -0.71700
O3865       O  0.80790231  0.74766677  0.41478334    -0.71700
O3866       O  0.81093388  0.74708236  0.45869390    -0.71900
V3867       V  0.76079934  0.74822283  0.43753252     1.35200
V3868       V  0.80859552  0.74740444  0.43673126     1.35200
C3869       C  0.78633133  0.74697457  0.46648587     0.77600
C3870       C  0.78234760  0.74897366  0.40785621     0.77600
C3871       C  0.78372682  0.68936970  0.43652926     0.77500
C3872       C  0.78579035  0.80626164  0.43743222     0.77500
O3873       O  0.49985374  0.93422058  0.04145007    -0.71700
O3874       O  0.99684590  0.93905600  0.08522922    -0.71900
O3875       O  0.95460297  0.93667293  0.06255309    -0.71700
O3876       O  0.54195446  0.93668181  0.06412274    -0.71800
O3877       O  0.54164532  0.48632920  0.06246492    -0.71700
O3878       O  0.95483280  0.48639483  0.06148768    -0.71700
O3879       O  0.49738313  0.48869715  0.08366373    -0.71700
O3880       O  0.99934270  0.48389816  0.04028631    -0.71900
V3881       V  0.99827640  0.93754601  0.06331817     1.35200
V3882       V  0.99827761  0.48529655  0.06200261     1.35200
C3883       C  0.00014905  0.45842137  0.03337728     0.77600
C3884       C  0.99705392  0.46486620  0.09192591     0.77600
C3885       C  0.93978440  0.96162687  0.06177792     0.77500
C3886       C  0.55672541  0.96166903  0.06347194     0.77500
O3887       O  0.99994468  0.81550778  0.04085224    -0.71700
O3888       O  0.50161716  0.81198568  0.08464287    -0.71900
O3889       O  0.54428809  0.81348380  0.06229720    -0.71700
O3890       O  0.95719630  0.81426604  0.06341591    -0.71800
O3891       O  0.95687368  0.76451930  0.06243687    -0.71700
O3892       O  0.54403484  0.76376767  0.06119669    -0.71700
O3893       O  0.00133752  0.76228075  0.08353563    -0.71700
O3894       O  0.49937348  0.76578328  0.04006481    -0.71900
V3895       V  0.50076711  0.81287475  0.06275706     1.35200
V3896       V  0.50041467  0.76508070  0.06181319     1.35200
C3897       C  0.49959370  0.79108611  0.03295983     0.77600
C3898       C  0.50142275  0.78643280  0.09157386     0.77600
C3899       C  0.55910086  0.78857255  0.06161402     0.77500
C3900       C  0.94214138  0.78946946  0.06339505     0.77500
O3901       O  0.75008921  0.94135515  0.08505962    -0.71700
O3902       O  0.74697848  0.93748399  0.04132124    -0.71900
O3903       O  0.79201714  0.93988848  0.06232453    -0.71700
O3904       O  0.70517331  0.93849023  0.06405834    -0.71800
O3905       O  0.70414424  0.48815686  0.06252654    -0.71700
O3906       O  0.79143986  0.48963683  0.06166048    -0.71700
O3907       O  0.74685056  0.48720669  0.04034868    -0.71700
O3908       O  0.74845801  0.49100834  0.08381174    -0.71900
V3909       V  0.74857908  0.94026305  0.06316746     1.35200
V3910       V  0.74776794  0.48803835  0.06210658     1.35200
C3911       C  0.74935172  0.46697843  0.09192380     0.77600
C3912       C  0.74637140  0.46181479  0.03335587     0.77600
C3913       C  0.80666374  0.96488975  0.06177634     0.77500
C3914       C  0.68974758  0.96300092  0.06355796     0.77500
O3915       O  0.74781642  0.76064268  0.08411789    -0.71700
O3916       O  0.75398117  0.76548817  0.04061848    -0.71900
O3917       O  0.79428729  0.76334931  0.06387268    -0.71700
O3918       O  0.70745390  0.76266764  0.06080893    -0.71800
O3919       O  0.70689058  0.81220387  0.06319950    -0.71700
O3920       O  0.79413623  0.81311686  0.06427676    -0.71700
O3921       O  0.75126669  0.81515352  0.04186995    -0.71700
O3922       O  0.74950395  0.81031663  0.08550063    -0.71900
V3923       V  0.75089663  0.76400377  0.06238318     1.35200
V3924       V  0.75046294  0.81176057  0.06367989     1.35200
C3925       C  0.74809523  0.78467203  0.09227664     0.77600
C3926       C  0.75302897  0.79110410  0.03378193     0.77600
C3927       C  0.80913799  0.78824149  0.06438881     0.77500
C3928       C  0.69224752  0.78730821  0.06166823     0.77500
O3929       O  0.99739323  0.50149943  0.16455197    -0.71700
O3930       O  0.49768519  0.51155785  0.20793422    -0.71900
O3931       O  0.54106130  0.50660104  0.18613276    -0.71700
O3932       O  0.95375219  0.50621522  0.18617347    -0.71800
O3933       O  0.95425047  0.95665362  0.18850664    -0.71700
O3934       O  0.54114366  0.95729988  0.18951335    -0.71700
O3935       O  0.99635836  0.96203806  0.21072124    -0.71700
O3936       O  0.49860799  0.95205748  0.16732259    -0.71900
V3937       V  0.49746446  0.50553587  0.18626410     1.35200
V3938       V  0.49764016  0.95799421  0.18897587     1.35200
C3939       C  0.49800591  0.97511200  0.15849425     0.77600
C3940       C  0.49673042  0.98846666  0.21672647     0.77600
C3941       C  0.55604832  0.48196425  0.18782070     0.77500
C3942       C  0.93908682  0.48120775  0.18718740     0.77500
O3943       O  0.00134544  0.79977078  0.16650830    -0.71700
O3944       O  0.49640537  0.79380517  0.21004789    -0.71900
O3945       O  0.54268038  0.79690105  0.18949250    -0.71700
O3946       O  0.95554689  0.79644100  0.18703753    -0.71800
O3947       O  0.95617044  0.74669937  0.18653557    -0.71700
O3948       O  0.54310788  0.74747090  0.18665811    -0.71700
O3949       O  0.99974377  0.74417153  0.20840413    -0.71700
O3950       O  0.49954327  0.75017230  0.16481219    -0.71900
V3951       V  0.49907802  0.79580399  0.18824447     1.35200
V3952       V  0.49963497  0.74809379  0.18663329     1.35200
C3953       C  0.50046706  0.77599737  0.15817539     0.77600
C3954       C  0.49753200  0.76796466  0.21664404     0.77600
C3955       C  0.55783996  0.77221657  0.18835186     0.77500
C3956       C  0.94093205  0.77137306  0.18650570     0.77500
O3957       O  0.74785805  0.95925932  0.21084718    -0.71700
O3958       O  0.74794984  0.95091504  0.16724343    -0.71900
O3959       O  0.79148024  0.95540999  0.18894795    -0.71700
O3960       O  0.70427017  0.95479608  0.18902406    -0.71800
O3961       O  0.70409231  0.50448175  0.18764512    -0.71700
O3962       O  0.79100754  0.50471606  0.18551482    -0.71700
O3963       O  0.74562168  0.50040859  0.16498552    -0.71700
O3964       O  0.74995899  0.50879151  0.20839714    -0.71900
V3965       V  0.74786184  0.95602304  0.18899200     1.35200
V3966       V  0.74759925  0.50363035  0.18670875     1.35200
C3967       C  0.74960238  0.48546933  0.21705992     0.77600
C3968       C  0.74677558  0.47431250  0.15864178     0.77600
C3969       C  0.80614560  0.98014392  0.18688558     0.77500
C3970       C  0.68923291  0.97958640  0.18834603     0.77500
O3971       O  0.75115265  0.74174776  0.20872630    -0.71700
O3972       O  0.74795888  0.74867171  0.16522166    -0.71900
O3973       O  0.79323145  0.74580758  0.18616282    -0.71700
O3974       O  0.70604191  0.74492827  0.18772804    -0.71800
O3975       O  0.70593543  0.79440731  0.19035517    -0.71700
O3976       O  0.79269232  0.79549701  0.18744377    -0.71700
O3977       O  0.74654383  0.79829129  0.16717522    -0.71700
O3978       O  0.75269596  0.79142449  0.21065466    -0.71900
V3979       V  0.74960261  0.74623391  0.18700485     1.35200
V3980       V  0.74938505  0.79393254  0.18888290     1.35200
C3981       C  0.75311351  0.76538380  0.21708327     0.77600
C3982       C  0.74658808  0.77462382  0.15875099     0.77600
C3983       C  0.80787674  0.77090277  0.18643315     0.77500
C3984       C  0.69104430  0.76958992  0.18927740     0.77500
O3985       O  0.99922102  0.48402334  0.91599787    -0.71700
O3986       O  0.50051533  0.48040022  0.95944227    -0.71900
O3987       O  0.54329836  0.48191203  0.93738178    -0.71700
O3988       O  0.95616242  0.48218456  0.93811664    -0.71800
O3989       O  0.95609188  0.93250853  0.93674930    -0.71700
O3990       O  0.54311216  0.93216562  0.93673482    -0.71700
O3991       O  0.99965580  0.93068132  0.95869178    -0.71700
O3992       O  0.49974448  0.93432410  0.91484362    -0.71900
V3993       V  0.49976108  0.48113642  0.93771553     1.35200
V3994       V  0.49961679  0.93335054  0.93677024     1.35200
C3995       C  0.49969026  0.95992311  0.90793143     0.77600
C3996       C  0.50037629  0.95512012  0.96656472     0.77600
C3997       C  0.55812522  0.45696239  0.93696100     0.77500
C3998       C  0.94117869  0.45733972  0.93753062     0.77500
O3999       O  0.00187536  0.81215342  0.91468833    -0.71700
O4000       O  0.50183855  0.81390428  0.95845175    -0.71900
O4001       O  0.54546069  0.81335511  0.93660715    -0.71700
O4002       O  0.95841161  0.81276362  0.93663459    -0.71800
O4003       O  0.95865564  0.76301504  0.93711232    -0.71700
O4004       O  0.54575903  0.76360358  0.93718943    -0.71700
O4005       O  0.00205333  0.76416376  0.95886564    -0.71700
O4006       O  0.50227247  0.76242075  0.91529790    -0.71900
V4007       V  0.50191697  0.81209434  0.93658633     1.35200
V4008       V  0.50220265  0.76427798  0.93708301     1.35200
C4009       C  0.50200811  0.78691951  0.90749247     0.77600
C4010       C  0.50171877  0.78924667  0.96615265     0.77600
C4011       C  0.56053849  0.78856925  0.93706986     0.77500
C4012       C  0.94360591  0.78781643  0.93702696     0.77500
O4013       O  0.74899982  0.93335636  0.95905649    -0.71700
O4014       O  0.75013329  0.93460049  0.91525912    -0.71900
O4015       O  0.79316183  0.93410778  0.93742607    -0.71700
O4016       O  0.70605225  0.93381299  0.93692410    -0.71800
O4017       O  0.70599678  0.48357724  0.93665353    -0.71700
O4018       O  0.79296088  0.48381979  0.93849402    -0.71700
O4019       O  0.75142474  0.48433114  0.91579957    -0.71700
O4020       O  0.74744580  0.48309265  0.95930006    -0.71900
V4021       V  0.74959898  0.93489982  0.93717540     1.35200
V4022       V  0.74946402  0.48271928  0.93754355     1.35200
C4023       C  0.74765505  0.45807599  0.96666327     0.77600
C4024       C  0.75129691  0.45981082  0.90804133     0.77600
C4025       C  0.80799987  0.95902544  0.93811436     0.77500
C4026       C  0.69110369  0.95869285  0.93672102     0.77500
O4027       O  0.75315432  0.76705842  0.96001633    -0.71700
O4028       O  0.75116988  0.76436854  0.91653992    -0.71900
O4029       O  0.79555207  0.76554340  0.93784642    -0.71700
O4030       O  0.70849510  0.76603923  0.93876205    -0.71800
O4031       O  0.70866857  0.81568924  0.93709131    -0.71700
O4032       O  0.79575058  0.81529979  0.93785640    -0.71700
O4033       O  0.75304977  0.81402160  0.91551870    -0.71700
O4034       O  0.75149066  0.81681553  0.95939040    -0.71900
V4035       V  0.75204942  0.76674513  0.93826698     1.35200
V4036       V  0.75221891  0.81453972  0.93747861     1.35200
C4037       C  0.75276847  0.79226962  0.96717107     0.77600
C4038       C  0.75219126  0.78853397  0.90852181     0.77600
C4039       C  0.81058324  0.79035991  0.93789263     0.77500
C4040       C  0.69363871  0.79093228  0.93793353     0.77500
O4041       O  0.94026296  0.50493281  0.58535180    -0.71700
O4042       O  0.93653483  0.00289970  0.54149385    -0.71900
O4043       O  0.93804946  0.96052336  0.56393939    -0.71700
O4044       O  0.93846311  0.54746149  0.56291791    -0.71800
O4045       O  0.48822251  0.54735903  0.56275635    -0.71700
O4046       O  0.48766147  0.96019208  0.56199845    -0.71700
O4047       O  0.48624870  0.50459425  0.54059857    -0.71700
O4048       O  0.48991575  0.00295079  0.58416246    -0.71900
V4049       V  0.93926784  0.00398266  0.56340894     1.35200
V4050       V  0.48704204  0.00377689  0.56239991     1.35200
C4051       C  0.46582915  0.00390118  0.59226813     0.77600
C4052       C  0.46089642  0.00356154  0.53354336     0.77600
C4053       C  0.96273217  0.94542308  0.56301138     0.77500
C4054       C  0.96334693  0.56234667  0.56276649     0.77500
O4055       O  0.94033007  0.75218139  0.58482702    -0.71700
O4056       O  0.93827067  0.75493159  0.54101082    -0.71900
O4057       O  0.93961946  0.71013887  0.56229615    -0.71700
O4058       O  0.93905384  0.79728148  0.56352998    -0.71800
O4059       O  0.48877852  0.79743598  0.56258093    -0.71700
O4060       O  0.48937942  0.71049095  0.56199288    -0.71700
O4061       O  0.48801956  0.75454654  0.54046932    -0.71700
O4062       O  0.49005147  0.75314563  0.58408166    -0.71900
V4063       V  0.94025164  0.75368171  0.56290051     1.35200
V4064       V  0.48806290  0.75395448  0.56229679     1.35200
C4065       C  0.46565247  0.75189080  0.59195536     0.77600
C4066       C  0.46283949  0.75481956  0.53323256     0.77600
C4067       C  0.96463724  0.69539181  0.56210439     0.77500
C4068       C  0.96389654  0.81229881  0.56310280     0.77500
O4069       O  0.81017128  0.49832049  0.54141698    -0.71700
O4070       O  0.80794236  0.99885215  0.58524798    -0.71900
O4071       O  0.80922136  0.95497864  0.56334269    -0.71700
O4072       O  0.80884024  0.54215690  0.56327745    -0.71800
O4073       O  0.75909724  0.54176906  0.56263401    -0.71700
O4074       O  0.75947839  0.95481146  0.56273089    -0.71700
O4075       O  0.75821356  0.49862273  0.58454511    -0.71700
O4076       O  0.76044151  0.99807143  0.54094244    -0.71900
V4077       V  0.80811266  0.99855722  0.56332238     1.35200
V4078       V  0.76030414  0.99831501  0.56273902     1.35200
C4079       C  0.78557032  0.99791292  0.53366888     0.77600
C4080       C  0.78263381  0.99916929  0.59240734     0.77600
C4081       C  0.78440173  0.93995910  0.56282994     0.77500
C4082       C  0.78382113  0.55689221  0.56296380     0.77500
O4083       O  0.81001069  0.74773363  0.54147505    -0.71700
O4084       O  0.80558066  0.74942624  0.58521592    -0.71900
O4085       O  0.80837696  0.70519818  0.56381504    -0.71700
O4086       O  0.80739285  0.79213103  0.56286094    -0.71800
O4087       O  0.75768040  0.79170109  0.56180098    -0.71700
O4088       O  0.75869332  0.70453638  0.56245775    -0.71700
O4089       O  0.75590145  0.74863227  0.58399267    -0.71700
O4090       O  0.76030991  0.74753373  0.54037653    -0.71900
V4091       V  0.80687227  0.74864031  0.56333019     1.35200
V4092       V  0.75910594  0.74811729  0.56218476     1.35200
C4093       C  0.78582668  0.74739183  0.53342245     0.77600
C4094       C  0.77998672  0.74902903  0.59211472     0.77600
C4095       C  0.78375976  0.68994214  0.56323705     0.77500
C4096       C  0.78242752  0.80685264  0.56212123     0.77500
C4097       C  0.78426599  0.90591598  0.56224761    -0.05400
C4098       C  0.75619505  0.89020872  0.56097695    -0.32800
C4099       C  0.75513447  0.85810340  0.56070965     0.36500
C4100       C  0.78250738  0.84090874  0.56177007    -0.05700
C4101       C  0.81060639  0.85664462  0.56266911    -0.32700
C4102       C  0.81167572  0.88871704  0.56279611     0.36400
H4103       H  0.73481662  0.90281697  0.56022565     0.16700
O4104       O  0.72719965  0.84391353  0.55921406    -0.60200
H4105       H  0.83202310  0.84408056  0.56334392     0.16800
O4106       O  0.83970434  0.90288237  0.56371297    -0.60300
H4107       H  0.84692409  0.90462940  0.55294597     0.43700
H4108       H  0.71887186  0.84256876  0.56979632     0.43700
C4109       C  0.78353157  0.59092399  0.56305880    -0.05400
C4110       C  0.81111694  0.60705386  0.56518893    -0.32800
C4111       C  0.81163290  0.63916513  0.56532606     0.36500
C4112       C  0.78416100  0.65591469  0.56333766    -0.05700
C4113       C  0.75658811  0.63977067  0.56125066    -0.32700
C4114       C  0.75606042  0.60769063  0.56114947     0.36400
H4115       H  0.83249853  0.59477547  0.56681088     0.16700
O4116       O  0.83908253  0.65380996  0.56772632    -0.60200
H4117       H  0.73519605  0.65202082  0.55962037     0.16800
O4118       O  0.72856664  0.59308731  0.55883505    -0.60300
H4119       H  0.71899868  0.59168735  0.56915495     0.43700
H4120       H  0.84911484  0.65460132  0.55750237     0.43700
C4121       C  0.96259292  0.91137679  0.56309659    -0.05400
C4122       C  0.49018988  0.89543155  0.56072360    -0.32800
C4123       C  0.49097801  0.86335693  0.56066351     0.36500
C4124       C  0.96382031  0.84635885  0.56311874    -0.05700
C4125       C  0.93617281  0.86229196  0.56546372    -0.32700
C4126       C  0.93540617  0.89441280  0.56553698     0.36400
H4127       H  0.51138993  0.90783908  0.55879892     0.16700
O4128       O  0.51854548  0.84898498  0.55819102    -0.60200
H4129       H  0.91497166  0.84985260  0.56734340     0.16800
O4130       O  0.90786412  0.90887153  0.56792760    -0.60300
H4131       H  0.90587221  0.91063777  0.57924617     0.43700
H4132       H  0.52007185  0.84661294  0.54688339     0.43700
C4133       C  0.96342405  0.59638998  0.56255629    -0.05400
C4134       C  0.49138152  0.61228452  0.56371986    -0.32800
C4135       C  0.49223843  0.64438647  0.56358540     0.36500
C4136       C  0.96477892  0.66136997  0.56214580    -0.05700
C4137       C  0.93685006  0.64547161  0.56097263    -0.32700
C4138       C  0.93598315  0.61340445  0.56112348     0.36400
H4139       H  0.51278370  0.59982503  0.56483999     0.16700
O4140       O  0.52011680  0.65878390  0.56484181    -0.60200
H4141       H  0.91542331  0.65790641  0.55989042     0.16800
O4142       O  0.90805912  0.59906496  0.55997672    -0.60300
H4143       H  0.90415599  0.59715601  0.54879094     0.43700
H4144       H  0.52356011  0.66123233  0.57604075     0.43700
C4145       C  0.90958079  0.78795511  0.93746009    -0.05400
C4146       C  0.89396383  0.81615349  0.93752329    -0.32800
C4147       C  0.86191179  0.81738424  0.93777695     0.36500
C4148       C  0.84461735  0.79001421  0.93794070    -0.05700
C4149       C  0.86022580  0.76177896  0.93807921    -0.32700
C4150       C  0.89231928  0.76056834  0.93795007     0.36400
H4151       H  0.90663486  0.83750803  0.93733680     0.16700
O4152       O  0.84786843  0.84554321  0.93803780    -0.60200
H4153       H  0.84754815  0.74040039  0.93830094     0.16800
O4154       O  0.90642276  0.73243078  0.93812300    -0.60300
H4155       H  0.90828417  0.72696487  0.94915006     0.43700
H4156       H  0.84642899  0.85189914  0.92711566     0.43700
C4157       C  0.59457229  0.78894485  0.93750511    -0.05400
C4158       C  0.61029940  0.81664977  0.93501191    -0.32800
C4159       C  0.64240346  0.81777768  0.93517169     0.36500
C4160       C  0.65957350  0.79084889  0.93791873    -0.05700
C4161       C  0.64381636  0.76322565  0.94059868    -0.32700
C4162       C  0.61173018  0.76213605  0.94051481     0.36400
H4163       H  0.59769447  0.83760210  0.93278160     0.16700
O4164       O  0.65663283  0.84539726  0.93266333    -0.60200
H4165       H  0.65638291  0.74225485  0.94286750     0.16800
O4166       O  0.59750303  0.73466395  0.94341377    -0.60300
H4167       H  0.59473813  0.73401853  0.95472508     0.43700
H4168       H  0.65822060  0.84731101  0.92133441     0.43700
C4169       C  0.90710150  0.45744026  0.93780718    -0.05400
C4170       C  0.89132030  0.48521567  0.94003371    -0.32800
C4171       C  0.85920012  0.48617757  0.94024817     0.36500
C4172       C  0.84206270  0.95897364  0.93826520    -0.05700
C4173       C  0.85785081  0.93119498  0.93614310    -0.32700
C4174       C  0.88993340  0.93022024  0.93594076     0.36400
H4175       H  0.90388683  0.50642202  0.94163254     0.16700
O4176       O  0.84492901  0.51381268  0.94267336    -0.60200
H4177       H  0.84529232  0.91000896  0.93452298     0.16800
O4178       O  0.90413124  0.90252824  0.93361302    -0.60300
H4179       H  0.90621860  0.89339326  0.94399510     0.43700
H4180       H  0.84388832  0.52367371  0.93241568     0.43700
C4181       C  0.65708938  0.95856287  0.93667057    -0.05400
C4182       C  0.64131215  0.93076441  0.93459039    -0.32800
C4183       C  0.60921633  0.92980185  0.93457406     0.36500
C4184       C  0.59213804  0.45698643  0.93677475    -0.05700
C4185       C  0.60793154  0.48476938  0.93884269    -0.32700
C4186       C  0.63999672  0.48572020  0.93888502     0.36400
H4187       H  0.65387432  0.90959354  0.93288382     0.16700
O4188       O  0.59490773  0.90208799  0.93248149    -0.60200
H4189       H  0.59541304  0.50596551  0.94059196     0.16800
O4190       O  0.65426529  0.51339546  0.94116582    -0.60300
H4191       H  0.65659363  0.51524088  0.95246101     0.43700
H4192       H  0.59334098  0.89952334  0.92119072     0.43700
C4193       C  0.90690548  0.77098641  0.18594216    -0.05400
C4194       C  0.89064663  0.79882125  0.18614380    -0.32800
C4195       C  0.85854421  0.79924669  0.18598874     0.36500
C4196       C  0.84189418  0.77142661  0.18579297    -0.05700
C4197       C  0.85815786  0.74363425  0.18525132    -0.32700
C4198       C  0.89025304  0.74321178  0.18533782     0.36400
H4199       H  0.90281428  0.82048808  0.18650018     0.16700
O4200       O  0.84381842  0.82706312  0.18630615    -0.60200
H4201       H  0.84599396  0.72196613  0.18492201     0.16800
O4202       O  0.90498673  0.71542448  0.18472169    -0.60300
H4203       H  0.90623916  0.70836368  0.19553978     0.43700
H4204       H  0.84158928  0.83312883  0.17537626     0.43700
C4205       C  0.59190947  0.77190874  0.18897342    -0.05400
C4206       C  0.60757088  0.74372764  0.18816288    -0.32800
C4207       C  0.63967008  0.74247401  0.18840352     0.36500
C4208       C  0.65695825  0.76976260  0.18954314    -0.05700
C4209       C  0.64128741  0.79790151  0.19055437    -0.32700
C4210       C  0.60918843  0.79914528  0.19033890     0.36400
H4211       H  0.59492795  0.72240300  0.18725220     0.16700
O4212       O  0.65376226  0.71436377  0.18764542    -0.60200
H4213       H  0.65393338  0.81923157  0.19141656     0.16800
O4214       O  0.59509527  0.82723664  0.19116678    -0.60300
H4215       H  0.59304772  0.83156823  0.20230777     0.43700
H4216       H  0.65517368  0.70957725  0.17652928     0.43700
C4217       C  0.90508482  0.48054396  0.18678964    -0.05400
C4218       C  0.88878033  0.50612415  0.18133500    -0.32800
C4219       C  0.85665449  0.50606540  0.18090308     0.36500
C4220       C  0.84013182  0.98033341  0.18629074    -0.05700
C4221       C  0.85646126  0.95452183  0.19140283    -0.32700
C4222       C  0.88853891  0.95446602  0.19171299     0.36400
H4223       H  0.90095808  0.52620038  0.17723744     0.16700
O4224       O  0.84174580  0.53129651  0.17514596    -0.60200
H4225       H  0.84434544  0.93438519  0.19547195     0.16800
O4226       O  0.90338308  0.92882605  0.19703965    -0.60300
H4227       H  0.90559049  0.93208059  0.20826496     0.43700
H4228       H  0.83885712  0.52692272  0.16405430     0.43700
C4229       C  0.59012324  0.48170068  0.18782994    -0.05400
C4230       C  0.60576198  0.95397005  0.19047625    -0.32800
C4231       C  0.63786557  0.95276839  0.19057470     0.36500
C4232       C  0.65515848  0.97973705  0.18819386    -0.05700
C4233       C  0.63952047  0.50740861  0.18542338    -0.32700
C4234       C  0.60742656  0.50856859  0.18520731     0.36400
H4235       H  0.59309552  0.93295837  0.19249009     0.16700
O4236       O  0.65196313  0.92515659  0.19330689    -0.60200
H4237       H  0.65219313  0.52838446  0.18332961     0.16800
O4238       O  0.59335247  0.53603854  0.18211454    -0.60300
H4239       H  0.59194000  0.54666987  0.19216686     0.43700
H4240       H  0.65301640  0.91488414  0.18314958     0.43700
C4241       C  0.75381070  0.79256335  0.01675560    -0.05400
C4242       C  0.76677123  0.76810770  0.00851080    -0.32800
C4243       C  0.76710149  0.76811786  0.99244337     0.36500
C4244       C  0.75390579  0.79270117  0.98420249    -0.05700
C4245       C  0.74136640  0.81745325  0.99241488    -0.32700
C4246       C  0.74110700  0.81747341  0.00854536     0.36400
H4247       H  0.77692089  0.74887280  0.01455111     0.16700
O4248       O  0.78058722  0.74395483  0.98492793    -0.60200
H4249       H  0.73097022  0.83645929  0.98631674     0.16800
O4250       O  0.72764708  0.84156841  0.01612024    -0.60300
H4251       H  0.70592059  0.83540565  0.01757940     0.43700
H4252       H  0.80215845  0.75036401  0.98319716     0.43700
C4253       C  0.74693836  0.78269375  0.10930240    -0.05400
C4254       C  0.73702085  0.75542487  0.11635892    -0.32800
C4255       C  0.73620850  0.75265198  0.13239182     0.36500
C4256       C  0.74569596  0.77731236  0.14175887    -0.05700
C4257       C  0.75516936  0.80473145  0.13471615    -0.32700
C4258       C  0.75603140  0.80750020  0.11868518     0.36400
H4259       H  0.72967516  0.73613799  0.10942446     0.16700
O4260       O  0.72597267  0.72571934  0.13874375    -0.60200
H4261       H  0.76267485  0.82394923  0.14165740     0.16800
O4262       O  0.76636946  0.83441978  0.11236186    -0.60300
H4263       H  0.78875518  0.83145464  0.11092802     0.43700
H4264       H  0.70376007  0.72894837  0.14060677     0.43700
C4265       C  0.74633632  0.45818237  0.98372766    -0.05400
C4266       C  0.74000700  0.48581170  0.99142221    -0.32800
C4267       C  0.73957727  0.48726935  0.00747625     0.36500
C4268       C  0.74546785  0.46070482  0.01629746    -0.05700
C4269       C  0.75111345  0.93289472  0.00862161    -0.32700
C4270       C  0.75152688  0.93145892  0.99252563     0.36400
H4271       H  0.73541207  0.50659100  0.98498053     0.16700
O4272       O  0.73274227  0.51474540  0.01437163    -0.60200
H4273       H  0.75569212  0.91216418  0.01510418     0.16800
O4274       O  0.75797733  0.90396942  0.98558164    -0.60300
H4275       H  0.73793079  0.89343159  0.98467144     0.43700
H4276       H  0.75226718  0.52635985  0.01446406     0.43700
C4277       C  0.74908033  0.46889750  0.10899380    -0.05400
C4278       C  0.74960279  0.94192244  0.11786493    -0.32800
C4279       C  0.74860093  0.94311555  0.13397282     0.36500
C4280       C  0.74718067  0.47170596  0.14158985    -0.05700
C4281       C  0.74668269  0.49861313  0.13269298    -0.32700
C4282       C  0.74774110  0.49745581  0.11664643     0.36400
H4283       H  0.75067347  0.91969656  0.11231816     0.16700
O4284       O  0.74942965  0.91615252  0.14209155    -0.60200
H4285       H  0.74561071  0.52090008  0.13817729     0.16800
O4286       O  0.74701997  0.52453889  0.10861599    -0.60300
H4287       H  0.76876246  0.53107095  0.10778498     0.43700
H4288       H  0.72776008  0.90934973  0.14277813     0.43700
C4289       C  0.90816996  0.78935692  0.06438251    -0.05400
C4290       C  0.89210306  0.76273536  0.06023799    -0.32800
C4291       C  0.86005599  0.76184947  0.06059797     0.36500
C4292       C  0.84318471  0.78814722  0.06487669    -0.05700
C4293       C  0.85923842  0.81460169  0.06944669    -0.32700
C4294       C  0.89143039  0.81517055  0.06946683     0.36400
H4295       H  0.90440118  0.74247282  0.05647820     0.16700
O4296       O  0.84552032  0.73541883  0.05612397    -0.60200
H4297       H  0.84683253  0.83484965  0.07314334     0.16800
O4298       O  0.90621332  0.84095484  0.07461710    -0.60300
H4299       H  0.90978209  0.83732778  0.08572471     0.43700
H4300       H  0.84489367  0.72236832  0.06546301     0.43700
C4301       C  0.59316550  0.78845199  0.06137128    -0.05400
C4302       C  0.60907455  0.76149660  0.05744484    -0.32800
C4303       C  0.64123819  0.76075359  0.05724707     0.36500
C4304       C  0.65820229  0.78723978  0.06116517    -0.05700
C4305       C  0.64224949  0.81419614  0.06494686    -0.32700
C4306       C  0.61018573  0.81494478  0.06515642     0.36400
H4307       H  0.59656694  0.74087623  0.05443077     0.16700
O4308       O  0.65571773  0.73394806  0.05327988    -0.60200
H4309       H  0.65465622  0.83482926  0.06803618     0.16800
O4310       O  0.59582886  0.84173016  0.06925746    -0.60300
H4311       H  0.59387304  0.84075665  0.08060463     0.43700
H4312       H  0.65819025  0.73496695  0.04195930     0.43700
C4313       C  0.49973926  0.79144487  0.01585676    -0.05400
C4314       C  0.99774176  0.76344523  0.00790361    -0.32800
C4315       C  0.99824420  0.76238128  0.99185197     0.36500
C4316       C  0.50103541  0.78969240  0.98323875    -0.05700
C4317       C  0.50296939  0.81774495  0.99115369    -0.32700
C4318       C  0.50242293  0.81880118  0.00727399     0.36400
H4319       H  0.99572088  0.74202096  0.01413963     0.16700
O4320       O  0.99620327  0.73434085  0.98477203    -0.60200
H4321       H  0.50515600  0.83899848  0.98482532     0.16800
O4322       O  0.50440626  0.84671050  0.01445902    -0.60300
H4323       H  0.52663763  0.85153871  0.01477454     0.43700
H4324       H  0.97392886  0.73049399  0.98357126     0.43700
C4325       C  0.50094314  0.78438635  0.10862700    -0.05400
C4326       C  0.49719232  0.75555045  0.11563661    -0.32800
C4327       C  0.49680598  0.75245280  0.13164255     0.36500
C4328       C  0.50038559  0.77848895  0.14112036    -0.05700
C4329       C  0.00367886  0.80741536  0.13411852    -0.32700
C4330       C  0.00375909  0.81053808  0.11808051     0.36400
H4331       H  0.49437976  0.73512023  0.10869043     0.16700
O4332       O  0.49217262  0.72387251  0.13783266    -0.60200
H4333       H  0.00623647  0.82784454  0.14108875     0.16800
O4334       O  0.00716151  0.83924035  0.11183608    -0.60300
H4335       H  0.98613900  0.84790759  0.11140995     0.43700
H4336       H  0.51274846  0.71416756  0.13808627     0.43700
C4337       C  0.84072031  0.96472413  0.06133559    -0.05400
C4338       C  0.85623090  0.93695056  0.05860515    -0.32800
C4339       C  0.88831653  0.93555171  0.05860248     0.36500
C4340       C  0.90573100  0.96224216  0.06136173    -0.05700
C4341       C  0.89023733  0.49011755  0.06386254    -0.32700
C4342       C  0.85812556  0.49154379  0.06382815     0.36400
H4343       H  0.84345664  0.91605930  0.05646066     0.16700
O4344       O  0.90230462  0.90802792  0.05559232    -0.60200
H4345       H  0.90303520  0.51097021  0.06605789     0.16800
O4346       O  0.84411453  0.51911187  0.06677460    -0.60300
H4347       H  0.84307818  0.52966507  0.05674088     0.43700
H4348       H  0.90441334  0.89798492  0.06574849     0.43700
C4349       C  0.59075094  0.96221278  0.06379925    -0.05400
C4350       C  0.60715192  0.93551204  0.06759855    -0.32800
C4351       C  0.63931059  0.93538852  0.06771913     0.36500
C4352       C  0.65574238  0.96233200  0.06398327    -0.05700
C4353       C  0.63930966  0.48906256  0.06037237    -0.32700
C4354       C  0.60724386  0.48922962  0.06029888     0.36400
H4355       H  0.59505450  0.91459167  0.07053271     0.16700
O4356       O  0.65433611  0.90899267  0.07187662    -0.60200
H4357       H  0.65133227  0.51000297  0.05740161     0.16800
O4358       O  0.59236788  0.51579802  0.05629823    -0.60300
H4359       H  0.59097086  0.52787079  0.06593350     0.43700
H4360       H  0.65482217  0.89620080  0.06245509     0.43700
C4361       C  0.00118507  0.45728365  0.01628841    -0.05400
C4362       C  0.50072176  0.92896095  0.00853983    -0.32800
C4363       C  0.50064289  0.92761304  0.99239872     0.36500
C4364       C  0.50104037  0.95491756  0.98366534    -0.05700
C4365       C  0.00204161  0.48311436  0.99146391    -0.32700
C4366       C  0.00232807  0.48449283  0.00748741     0.36400
H4367       H  0.50014119  0.90776279  0.01500682     0.16700
O4368       O  0.50042785  0.89951158  0.98534127    -0.60200
H4369       H  0.00258690  0.50450893  0.98512637     0.16800
O4370       O  0.00330037  0.51279584  0.01435794    -0.60300
H4371       H  0.02544699  0.51770621  0.01533039     0.43700
H4372       H  0.47849757  0.89347450  0.98487869     0.43700
C4373       C  0.99724423  0.46737880  0.10896781    -0.05400
C4374       C  0.49374385  0.94102287  0.11813161    -0.32800
C4375       C  0.49415745  0.94296791  0.13423264     0.36500
C4376       C  0.49796488  0.97169602  0.14150445    -0.05700
C4377       C  0.00157981  0.49793395  0.13232043    -0.32700
C4378       C  0.00122424  0.49603062  0.11629597     0.36400
H4379       H  0.49058572  0.91875983  0.11282690     0.16700
O4380       O  0.49004571  0.91672061  0.14268856    -0.60200
H4381       H  0.00481746  0.52024734  0.13755956     0.16800
O4382       O  0.00555322  0.52240018  0.10795874    -0.60300
H4383       H  0.98495161  0.53193493  0.10718127     0.43700
H4384       H  0.51066149  0.90720729  0.14337345     0.43700
C4385       C  0.78648314  0.74689151  0.48361944    -0.05400
C4386       C  0.81419714  0.74414334  0.49179780    -0.32800
C4387       C  0.81454142  0.74424587  0.50795447     0.36500
C4388       C  0.78684568  0.74704030  0.51630399    -0.05700
C4389       C  0.75926761  0.74977035  0.50809059    -0.32700
C4390       C  0.75885484  0.74965583  0.49203354     0.36400
H4391       H  0.83573310  0.74189740  0.48567325     0.16700
O4392       O  0.84208079  0.74125072  0.51539696    -0.60200
H4393       H  0.73765007  0.75216804  0.51412678     0.16800
O4394       O  0.73115609  0.75298787  0.48473681    -0.60300
H4395       H  0.72239413  0.73201459  0.48422594     0.43700
H4396       H  0.84849527  0.76257605  0.51777422     0.43700
C4397       C  0.78520928  0.90530787  0.43710700    -0.05400
C4398       C  0.81314479  0.88926037  0.43780980    -0.32800
C4399       C  0.81378460  0.85715034  0.43781838     0.36500
C4400       C  0.78614511  0.84030282  0.43729161    -0.05700
C4401       C  0.75825877  0.85635895  0.43643875    -0.32700
C4402       C  0.75758915  0.88843567  0.43633346     0.36400
H4403       H  0.83470217  0.90159700  0.43837530     0.16700
O4404       O  0.84160947  0.84258458  0.43853712    -0.60200
H4405       H  0.73670494  0.84404062  0.43578975     0.16800
O4406       O  0.72974974  0.90293187  0.43513285    -0.60300
H4407       H  0.72161216  0.90380852  0.44576861     0.43700
H4408       H  0.84803830  0.83999867  0.42767865     0.43700
C4409       C  0.78497567  0.59033615  0.43675904    -0.05400
C4410       C  0.75695744  0.60617432  0.43555590    -0.32800
C4411       C  0.75608733  0.63829902  0.43518664     0.36500
C4412       C  0.78356599  0.65533419  0.43620684    -0.05700
C4413       C  0.81156605  0.63945721  0.43710017    -0.32700
C4414       C  0.81242857  0.60741503  0.43742420     0.36400
H4415       H  0.73552429  0.59365634  0.43487021     0.16700
O4416       O  0.72818732  0.65266986  0.43397225    -0.60200
H4417       H  0.83305857  0.65188773  0.43774953     0.16800
O4418       O  0.84036459  0.59312916  0.43841148    -0.60300
H4419       H  0.84449462  0.59124741  0.44958090     0.43700
H4420       H  0.72452073  0.65481017  0.42277307     0.43700
C4421       C  0.78603175  0.99723694  0.51654335    -0.05400
C4422       C  0.81412811  0.99759530  0.50856402    -0.32800
C4423       C  0.81502979  0.99749410  0.49242101     0.36500
C4424       C  0.78746163  0.99705550  0.48386652    -0.05700
C4425       C  0.75947222  0.49627006  0.49188027    -0.32700
C4426       C  0.75856122  0.49612703  0.50794597     0.36400
H4427       H  0.83557648  0.99805341  0.51484151     0.16700
O4428       O  0.84301362  0.99746470  0.48519590    -0.60200
H4429       H  0.73793114  0.49568315  0.48567740     0.16800
O4430       O  0.73048567  0.49519378  0.51506222    -0.60300
H4431       H  0.72563495  0.47305666  0.51614029     0.43700
H4432       H  0.84926052  0.01932647  0.48469304     0.43700
C4433       C  0.46330645  0.75039165  0.48349234    -0.05400
C4434       C  0.93587996  0.75660710  0.49143049    -0.32800
C4435       C  0.93538793  0.75876917  0.50753672     0.36500
C4436       C  0.46251602  0.75424106  0.51611271    -0.05700
C4437       C  0.48992340  0.74831080  0.50814973    -0.32700
C4438       C  0.49050001  0.74625315  0.49210588     0.36400
H4439       H  0.91471671  0.76014428  0.48514420     0.16700
O4440       O  0.90822070  0.76539898  0.51473392    -0.60200
H4441       H  0.51114480  0.74478103  0.51438717     0.16800
O4442       O  0.51795611  0.74014748  0.48502261    -0.60300
H4443       H  0.51915400  0.71745185  0.48445076     0.43700
H4444       H  0.90739452  0.78811012  0.51523628     0.43700
C4445       C  0.96568227  0.84017266  0.43644592    -0.05400
C4446       C  0.49324736  0.85604855  0.43910613    -0.32800
C4447       C  0.49407194  0.88819842  0.43927447     0.36500
C4448       C  0.96694909  0.90523950  0.43678729    -0.05700
C4449       C  0.93947028  0.88932257  0.43402130    -0.32700
C4450       C  0.93864970  0.85725483  0.43388983     0.36400
H4451       H  0.51432079  0.84353571  0.44120458     0.16700
O4452       O  0.52140599  0.90258507  0.44228141    -0.60200
H4453       H  0.91832164  0.90174866  0.43197526     0.16800
O4454       O  0.91121199  0.84295706  0.43111196    -0.60300
H4455       H  0.90211956  0.83956963  0.44141952     0.43700
H4456       H  0.53204685  0.90382629  0.43222966     0.43700
C4457       C  0.96383266  0.59022224  0.43765633    -0.05400
C4458       C  0.48991368  0.60628237  0.43267946    -0.32800
C4459       C  0.49038687  0.63835765  0.43246521     0.36500
C4460       C  0.96446607  0.65514060  0.43733305    -0.05700
C4461       C  0.93827012  0.63910060  0.44225573    -0.32700
C4462       C  0.93782179  0.60695983  0.44245815     0.36400
H4463       H  0.51000547  0.59393612  0.42872442     0.16700
O4464       O  0.51592331  0.65300432  0.42688072    -0.60200
H4465       H  0.91814633  0.65149222  0.44613646     0.16800
O4466       O  0.91215929  0.59224088  0.44780839    -0.60300
H4467       H  0.89980847  0.58786198  0.43850472     0.43700
H4468       H  0.53053889  0.65363450  0.43560925     0.43700
C4469       C  0.46236941  0.99999177  0.48380275    -0.05400
C4470       C  0.93561658  0.99173732  0.49187421    -0.32800
C4471       C  0.93443593  0.99323918  0.50800804     0.36500
C4472       C  0.46034998  0.00300802  0.51642896    -0.05700
C4473       C  0.48681983  0.51176502  0.50831431    -0.32700
C4474       C  0.48800562  0.51036314  0.49225616     0.36400
H4475       H  0.91558889  0.98375420  0.48568209     0.16700
O4476       O  0.90821317  0.98401890  0.51539976    -0.60200
H4477       H  0.50687969  0.51986897  0.51444365     0.16800
O4478       O  0.51412738  0.52018238  0.48495110    -0.60300
H4479       H  0.52846337  0.50251224  0.48537051     0.43700
H4480       H  0.89489576  0.00244747  0.51565795     0.43700
C4481       C  0.76148515  0.75634500  0.26613542    -0.05400
C4482       C  0.78025629  0.77701702  0.25808308    -0.32800
C4483       C  0.77728795  0.78059571  0.24214372     0.36500
C4484       C  0.75607683  0.76255428  0.23393456    -0.05700
C4485       C  0.73793584  0.74124206  0.24192403    -0.32700
C4486       C  0.74009525  0.73848794  0.25794181     0.36400
H4487       H  0.79688708  0.79086075  0.26421164     0.16700
O4488       O  0.79613428  0.80082582  0.23460025    -0.60200
H4489       H  0.72167830  0.72703836  0.23575308     0.16800
O4490       O  0.72208316  0.71741314  0.26541226    -0.60300
H4491       H  0.70221198  0.72790211  0.26712388     0.43700
H4492       H  0.78597085  0.82105927  0.23559811     0.43700
C4493       C  0.77649634  0.74850624  0.35833656    -0.05400
C4494       C  0.75154683  0.75840499  0.36725615    -0.32800
C4495       C  0.75329402  0.75901446  0.38329982     0.36500
C4496       C  0.78040095  0.74954176  0.39083423    -0.05700
C4497       C  0.80547214  0.73984485  0.38192408    -0.32700
C4498       C  0.80371398  0.73929387  0.36583339     0.36400
H4499       H  0.73058148  0.76609747  0.36177978     0.16700
O4500       O  0.72863490  0.76990657  0.39145447    -0.60200
H4501       H  0.82641570  0.73221385  0.38743803     0.16800
O4502       O  0.82837480  0.72866110  0.35760583    -0.60300
H4503       H  0.84254296  0.74635205  0.35677542     0.43700
H4504       H  0.71421338  0.75238616  0.39219929     0.43700
C4505       C  0.77032352  0.90841414  0.31438607    -0.05400
C4506       C  0.74277198  0.89246471  0.31698148    -0.32800
C4507       C  0.74200470  0.86037639  0.31715631     0.36500
C4508       C  0.76909413  0.84341010  0.31452698    -0.05700
C4509       C  0.79683767  0.85934343  0.31247831    -0.32700
C4510       C  0.79764196  0.89144878  0.31238227     0.36400
H4511       H  0.72152730  0.90487441  0.31878317     0.16700
O4512       O  0.71449413  0.84596858  0.31971905    -0.60200
H4513       H  0.81807723  0.84691489  0.31069004     0.16800
O4514       O  0.82533355  0.90587119  0.31036588    -0.60300
H4515       H  0.82853812  0.90652555  0.29908859     0.43700
H4516       H  0.71323777  0.84336301  0.33102414     0.43700
C4517       C  0.76905632  0.65846211  0.31059815    -0.05400
C4518       C  0.74124645  0.64254891  0.30871011    -0.32800
C4519       C  0.74042185  0.61040249  0.30858274     0.36500
C4520       C  0.76771099  0.59338900  0.31054059    -0.05700
C4521       C  0.79553651  0.60934013  0.31228781    -0.32700
C4522       C  0.79637396  0.64144144  0.31239090     0.36400
H4523       H  0.71995255  0.65505357  0.30725018     0.16700
O4524       O  0.71273901  0.59597595  0.30659821    -0.60200
H4525       H  0.81685286  0.59691152  0.31382332     0.16800
O4526       O  0.82406916  0.65583024  0.31443540    -0.60300
H4527       H  0.82642294  0.65793170  0.32571618     0.43700
H4528       H  0.71061164  0.59329198  0.29533766     0.43700
C4529       C  0.75913638  0.49521732  0.26619145    -0.05400
C4530       C  0.74059367  0.97186696  0.26007840    -0.32800
C4531       C  0.73738518  0.96828132  0.24412669     0.36500
C4532       C  0.75202534  0.48887760  0.23399495    -0.05700
C4533       C  0.76978629  0.51282610  0.24017290    -0.32700
C4534       C  0.77363016  0.51588843  0.25610671     0.36400
H4535       H  0.72901973  0.95596363  0.26770385     0.16700
O4536       O  0.71904798  0.94522903  0.23858156    -0.60200
H4537       H  0.78121300  0.52892884  0.23260177     0.16800
O4538       O  0.79127860  0.53941060  0.26171123    -0.60300
H4539       H  0.77665839  0.55625748  0.26391249     0.43700
H4540       H  0.73211213  0.92662720  0.23863849     0.43700
C4541       C  0.78206825  0.99899835  0.39096300    -0.05400
C4542       C  0.75357452  0.49472170  0.38374766    -0.32800
C4543       C  0.75071555  0.49595265  0.36775828     0.36500
C4544       C  0.77669625  0.50152036  0.35844848    -0.05700
C4545       C  0.80534237  0.00550472  0.36562219    -0.32700
C4546       C  0.80818548  0.00423050  0.38169292     0.36400
H4547       H  0.73318633  0.49027993  0.39052264     0.16700
O4548       O  0.72242168  0.49068331  0.36137989    -0.60200
H4549       H  0.82566658  0.00974612  0.35876912     0.16800
O4550       O  0.83649820  0.00883283  0.38816749    -0.60300
H4551       H  0.84621470  0.98828437  0.38842195     0.43700
H4552       H  0.71167536  0.51071699  0.36177827     0.43700
C4553       C  0.48975550  0.75968088  0.26576052    -0.05400
C4554       C  0.51240658  0.74316565  0.25779637    -0.32800
C4555       C  0.51519193  0.74569269  0.24178810     0.36500
C4556       C  0.49571036  0.76557166  0.23355057    -0.05700
C4557       C  0.97379528  0.78289023  0.24156546    -0.32700
C4558       C  0.97036234  0.77967038  0.25749984     0.36400
H4559       H  0.52760768  0.72782577  0.26396877     0.16700
O4560       O  0.53716186  0.72879255  0.23431487    -0.60200
H4561       H  0.95876021  0.79841095  0.23539825     0.16800
O4562       O  0.94870410  0.79698193  0.26497208    -0.60300
H4563       H  0.92918315  0.78554094  0.26375545     0.43700
H4564       H  0.55498495  0.74276786  0.23320850     0.43700
C4565       C  0.47247661  0.74905350  0.35798088    -0.05400
C4566       C  0.49885972  0.74413471  0.36690240    -0.32800
C4567       C  0.49728151  0.74266457  0.38293861     0.36500
C4568       C  0.46889850  0.74653301  0.39057579    -0.05700
C4569       C  0.94235157  0.75098846  0.38166794    -0.32700
C4570       C  0.94395220  0.75236092  0.36555507     0.36400
H4571       H  0.52101670  0.74124912  0.36143588     0.16700
O4572       O  0.52386160  0.73760965  0.39098958    -0.60200
H4573       H  0.92026511  0.75392429  0.38719748     0.16800
O4574       O  0.91746376  0.75713914  0.35739020    -0.60300
H4575       H  0.91525775  0.77974250  0.35672858     0.43700
H4576       H  0.52530797  0.71500080  0.39207963     0.43700
C4577       C  0.98152374  0.84550205  0.31252281    -0.05400
C4578       C  0.50934302  0.86117633  0.31477313    -0.32800
C4579       C  0.51047239  0.89326592  0.31472781     0.36500
C4580       C  0.98342881  0.91046717  0.31237822    -0.05700
C4581       C  0.95565568  0.89478184  0.31002057    -0.32700
C4582       C  0.95455874  0.86271535  0.30996362     0.36400
H4583       H  0.53043919  0.84854852  0.31662827     0.16700
O4584       O  0.53823310  0.90744192  0.31689707    -0.60200
H4585       H  0.93458078  0.90738751  0.30806488     0.16800
O4586       O  0.92692660  0.84857310  0.30736353    -0.60300
H4587       H  0.92566682  0.84610250  0.29605019     0.43700
H4588       H  0.54033083  0.90965358  0.32819047     0.43700
C4589       C  0.98299722  0.59549369  0.31131265    -0.05400
C4590       C  0.95618939  0.61115662  0.30693285    -0.32800
C4591       C  0.95512823  0.64327648  0.30669339     0.36500
C4592       C  0.98128325  0.66051800  0.31078510    -0.05700
C4593       C  0.50807727  0.64483954  0.31517967    -0.32700
C4594       C  0.50911854  0.61274669  0.31546085     0.36400
H4595       H  0.93585999  0.59848463  0.30361311     0.16700
O4596       O  0.92856174  0.65746100  0.30211162    -0.60200
H4597       H  0.52838228  0.65747663  0.31857224     0.16800
O4598       O  0.53555150  0.59860566  0.32027620    -0.60300
H4599       H  0.54895066  0.59781864  0.31106863     0.43700
H4600       H  0.91550440  0.65829317  0.31144148     0.43700
C4601       C  0.49519045  0.99207217  0.23360260    -0.05400
C4602       C  0.97548885  0.97300823  0.24204883    -0.32800
C4603       C  0.97267513  0.97625355  0.25798584     0.36500
C4604       C  0.49049641  0.99814192  0.26585540    -0.05700
C4605       C  0.51090763  0.51668720  0.25749359    -0.32700
C4606       C  0.51287568  0.51420086  0.24142353     0.36400
H4607       H  0.96179242  0.95582487  0.23622495     0.16700
O4608       O  0.95340133  0.95697078  0.26587362    -0.60200
H4609       H  0.52495056  0.53346445  0.26340040     0.16800
O4610       O  0.53302355  0.53258870  0.23355066    -0.60300
H4611       H  0.52195016  0.55217440  0.23193366     0.43700
H4612       H  0.93279558  0.96640996  0.26500995     0.43700
C4613       C  0.46989100  0.99996963  0.39086575    -0.05400
C4614       C  0.49888025  0.49816979  0.38381375    -0.32800
C4615       C  0.50211085  0.49955230  0.36781718     0.36500
C4616       C  0.47602467  0.00265405  0.35831833    -0.05700
C4617       C  0.94697264  0.00456439  0.36534603    -0.32700
C4618       C  0.94375729  0.00320274  0.38140147     0.36400
H4619       H  0.51939254  0.49562632  0.39072664     0.16700
O4620       O  0.53098376  0.49721025  0.36164244    -0.60200
H4621       H  0.92652491  0.00706399  0.35838100     0.16800
O4622       O  0.91497257  0.00559039  0.38766069    -0.60300
H4623       H  0.90679464  0.98432497  0.38776806     0.43700
H4624       H  0.53918430  0.51839070  0.36162330     0.43700
C4625       C  0.75179025  0.78367950  0.85876424    -0.05400
C4626       C  0.74858813  0.75707607  0.86773107    -0.32800
C4627       C  0.74903799  0.75832943  0.88377441     0.36500
C4628       C  0.75232563  0.78674407  0.89141258    -0.05700
C4629       C  0.75584745  0.81345473  0.88248231    -0.32700
C4630       C  0.75568218  0.81210439  0.86633610     0.36400
H4631       H  0.74572350  0.73489498  0.86230343     0.16700
O4632       O  0.74570030  0.73146780  0.89182257    -0.60200
H4633       H  0.75883136  0.83552509  0.88800849     0.16800
O4634       O  0.75994846  0.83864651  0.85814749    -0.60300
H4635       H  0.73906685  0.84709365  0.85658849     0.43700
H4636       H  0.76667712  0.72277099  0.89257132     0.43700
C4637       C  0.75221360  0.46082218  0.89096578    -0.05400
C4638       C  0.74441509  0.93471225  0.88229882    -0.32800
C4639       C  0.74385814  0.93573252  0.86616126     0.36500
C4640       C  0.75156576  0.46308726  0.85836122    -0.05700
C4641       C  0.75995961  0.48889108  0.86706036    -0.32700
C4642       C  0.76026515  0.48800012  0.88311475     0.36400
H4643       H  0.73813767  0.91355175  0.88803456     0.16700
O4644       O  0.73541439  0.90995565  0.85819220    -0.60200
H4645       H  0.76642645  0.51007878  0.86140414     0.16800
O4646       O  0.76929297  0.51373764  0.89097625    -0.60300
H4647       H  0.75080388  0.52699692  0.89142976     0.43700
H4648       H  0.71280866  0.91128240  0.85722510     0.43700
C4649       C  0.84459954  0.77512535  0.81289906    -0.05400
C4650       C  0.86063221  0.80305252  0.81215625    -0.32800
C4651       C  0.89276173  0.80363694  0.81197466     0.36500
C4652       C  0.90954977  0.77589685  0.81241419    -0.05700
C4653       C  0.89347198  0.74804920  0.81317762    -0.32700
C4654       C  0.86144117  0.74745188  0.81335518     0.36400
H4655       H  0.84827123  0.82461585  0.81176957     0.16700
O4656       O  0.90737148  0.83148201  0.81126298    -0.60200
H4657       H  0.90574070  0.72643368  0.81351558     0.16800
O4658       O  0.84695485  0.71953802  0.81396816    -0.60300
H4659       H  0.84429728  0.71326325  0.80310102     0.43700
H4660       H  0.90976783  0.83805794  0.82209977     0.43700
C4661       C  0.59454583  0.77362999  0.81085527    -0.05400
C4662       C  0.61063179  0.74568805  0.81061671    -0.32800
C4663       C  0.64279094  0.74504941  0.81084639     0.36500
C4664       C  0.65963414  0.77273635  0.81131064    -0.05700
C4665       C  0.64352174  0.80064479  0.81134920    -0.32700
C4666       C  0.61144598  0.80130432  0.81104883     0.36400
H4667       H  0.59827959  0.72412590  0.81029823     0.16700
O4668       O  0.65740238  0.71718711  0.81036556    -0.60200
H4669       H  0.65579585  0.82225453  0.81166786     0.16800
O4670       O  0.59697649  0.82926186  0.81125020    -0.60300
H4671       H  0.59588432  0.83573370  0.80034162     0.43700
H4672       H  0.65812215  0.71006862  0.82118017     0.43700
C4673       C  0.50192174  0.78564244  0.89039797    -0.05400
C4674       C  0.50319668  0.75694361  0.88310007    -0.32800
C4675       C  0.50326858  0.75450880  0.86708706     0.36500
C4676       C  0.50230112  0.78116204  0.85782831    -0.05700
C4677       C  0.00075576  0.80992660  0.86509614    -0.32700
C4678       C  0.00064789  0.81230899  0.88118780     0.36400
H4679       H  0.50416721  0.73603994  0.88982488     0.16700
O4680       O  0.50468139  0.72578837  0.86067989    -0.60200
H4681       H  0.99969707  0.83074155  0.85830612     0.16800
O4682       O  0.99892340  0.84084151  0.88773518    -0.60300
H4683       H  0.02047969  0.84799153  0.88848407     0.43700
H4684       H  0.48306073  0.71879054  0.86001087     0.43700
C4685       C  0.84344634  0.97235831  0.81181488    -0.05400
C4686       C  0.85874885  0.50039644  0.81403591    -0.32800
C4687       C  0.89080074  0.50194601  0.81416699     0.36500
C4688       C  0.90838450  0.47510167  0.81203440    -0.05700
C4689       C  0.89307705  0.94713561  0.80952544    -0.32700
C4690       C  0.86100710  0.94562601  0.80929777     0.36400
H4691       H  0.84585015  0.52135717  0.81580103     0.16700
O4692       O  0.90455847  0.52993801  0.81625027    -0.60200
H4693       H  0.90597692  0.92620342  0.80767409     0.16800
O4694       O  0.84721269  0.91783392  0.80665933    -0.60300
H4695       H  0.84556514  0.91620968  0.79532011     0.43700
H4696       H  0.90590918  0.53261377  0.82754588     0.43700
C4697       C  0.59342977  0.47531748  0.81143527    -0.05400
C4698       C  0.60870595  0.94696051  0.81026529    -0.32800
C4699       C  0.64078431  0.94526032  0.81035580     0.36500
C4700       C  0.65843094  0.97227193  0.81161615    -0.05700
C4701       C  0.64315155  0.50063912  0.81265742    -0.32700
C4702       C  0.61108315  0.50235051  0.81248051     0.36400
H4703       H  0.59576962  0.92581703  0.80932408     0.16700
O4704       O  0.65450388  0.91704127  0.80907829    -0.60200
H4705       H  0.65608565  0.52178508  0.81357839     0.16800
O4706       O  0.59737683  0.53059913  0.81357115    -0.60300
H4707       H  0.59598242  0.53821017  0.80285560     0.43700
H4708       H  0.65537984  0.90887751  0.81969202     0.43700
C4709       C  0.50048048  0.96214245  0.89087201    -0.05400
C4710       C  0.00469377  0.49098888  0.88394369    -0.32800
C4711       C  0.00561775  0.49418594  0.86794827     0.36500
C4712       C  0.50191754  0.96826493  0.85838215    -0.05700
C4713       C  0.49803512  0.93935521  0.86530206    -0.32700
C4714       C  0.49724644  0.93617913  0.88133681     0.36400
H4715       H  0.00748730  0.51134099  0.89094907     0.16700
O4716       O  0.00996060  0.52290102  0.86186259    -0.60200
H4717       H  0.49528332  0.91903577  0.85827081     0.16800
O4718       O  0.49327407  0.90753173  0.88751303    -0.60300
H4719       H  0.47073662  0.90467070  0.88817107     0.43700
H4720       H  0.03253260  0.52527661  0.86098175     0.43700
C4721       C  0.76208679  0.75650885  0.73446806    -0.05400
C4722       C  0.73774451  0.77353882  0.74078584    -0.32800
C4723       C  0.73516707  0.77765397  0.75670391     0.36500
C4724       C  0.75648912  0.76378897  0.76663715    -0.05700
C4725       C  0.78048515  0.74623513  0.76040878    -0.32700
C4726       C  0.78364033  0.74287938  0.74445015     0.36400
H4727       H  0.72091527  0.78419233  0.73333250     0.16700
O4728       O  0.71106146  0.79429065  0.76248215    -0.60200
H4729       H  0.79714812  0.73553859  0.76794511     0.16800
O4730       O  0.80771159  0.72606576  0.73876750    -0.60300
H4731       H  0.79976639  0.70483109  0.73779923     0.43700
H4732       H  0.71788721  0.81598369  0.76210396     0.43700
C4733       C  0.77300352  0.74826858  0.64184710    -0.05400
C4734       C  0.80181737  0.74647990  0.63462383    -0.32800
C4735       C  0.80450862  0.74680428  0.61856019     0.36500
C4736       C  0.77805696  0.74884097  0.60923452    -0.05700
C4737       C  0.74921012  0.75046200  0.61645715    -0.32700
C4738       C  0.74651225  0.75009676  0.63252114     0.36400
H4739       H  0.82253996  0.74485320  0.64144792     0.16700
O4740       O  0.83318118  0.74453849  0.61215506    -0.60200
H4741       H  0.72848127  0.75209292  0.60963665     0.16800
O4742       O  0.71781616  0.75224500  0.63891934    -0.60300
H4743       H  0.71001960  0.73088191  0.63931601     0.43700
H4744       H  0.84121692  0.76580722  0.61192994     0.43700
C4745       C  0.76999908  0.90804975  0.68695518    -0.05400
C4746       C  0.74202138  0.89237946  0.68529150    -0.32800
C4747       C  0.74089870  0.86029243  0.68533928     0.36500
C4748       C  0.76816212  0.84307278  0.68692889    -0.05700
C4749       C  0.79615411  0.85875785  0.68850724    -0.32700
C4750       C  0.79726630  0.89082755  0.68852292     0.36400
H4751       H  0.72074882  0.90500915  0.68404196     0.16700
O4752       O  0.71297776  0.84613652  0.68371986    -0.60200
H4753       H  0.81742111  0.84615702  0.68985305     0.16800
O4754       O  0.82511082  0.90496200  0.69050110    -0.60300
H4755       H  0.83423015  0.90614984  0.68007812     0.43700
H4756       H  0.70445822  0.84484371  0.69426737     0.43700
C4757       C  0.77030888  0.59300888  0.69001623    -0.05400
C4758       C  0.74212811  0.60870576  0.69007909    -0.32800
C4759       C  0.74096486  0.64079332  0.69005170     0.36500
C4760       C  0.76835458  0.65806850  0.68986897    -0.05700
C4761       C  0.79656878  0.64238312  0.68992601    -0.32700
C4762       C  0.79772913  0.61026625  0.68992853     0.36400
H4763       H  0.72071149  0.59608387  0.69011577     0.16700
O4764       O  0.71282498  0.65489461  0.68993834    -0.60200
H4765       H  0.81797767  0.65501939  0.68980330     0.16800
O4766       O  0.82585553  0.59612471  0.68979322    -0.60300
H4767       H  0.83140405  0.59428394  0.67877986     0.43700
H4768       H  0.70691114  0.65675657  0.70089948     0.43700
C4769       C  0.76293092  0.49219192  0.73449463    -0.05400
C4770       C  0.73762286  0.50472115  0.74231868    -0.32800
C4771       C  0.73371270  0.49992870  0.75812414     0.36500
C4772       C  0.75476999  0.48166982  0.76628015    -0.05700
C4773       C  0.77971443  0.96863314  0.75847397    -0.32700
C4774       C  0.78422156  0.97422474  0.74276877     0.36400
H4775       H  0.72095829  0.51852357  0.73618420     0.16700
O4776       O  0.70914990  0.51304372  0.76548468    -0.60200
H4777       H  0.79621200  0.95471944  0.76466762     0.16800
O4778       O  0.80889487  0.96108906  0.73552021    -0.60300
H4779       H  0.82622934  0.97538143  0.73733319     0.43700
H4780       H  0.69306694  0.49694892  0.76563705     0.43700
C4781       C  0.78119448  0.00046118  0.60951986    -0.05400
C4782       C  0.75240724  0.50191799  0.61678466    -0.32800
C4783       C  0.74985180  0.50329245  0.63280509     0.36500
C4784       C  0.77641751  0.00292837  0.64210787    -0.05700
C4785       C  0.80527653  0.00188335  0.63486390    -0.32700
C4786       C  0.80782140  0.00059998  0.61878354     0.36400
H4787       H  0.73154005  0.50204012  0.61002286     0.16700
O4788       O  0.72109031  0.50455663  0.63918604    -0.60200
H4789       H  0.82607433  0.00173768  0.64167868     0.16800
O4790       O  0.83650748  0.99973475  0.61230823    -0.60300
H4791       H  0.84221968  0.97771966  0.61211136     0.43700
H4792       H  0.71616713  0.52672627  0.63989024     0.43700
C4793       C  0.49151999  0.75633767  0.73363093    -0.05400
C4794       C  0.51264848  0.77772836  0.73946964    -0.32800
C4795       C  0.51555690  0.78233825  0.75535111     0.36500
C4796       C  0.49788637  0.76472970  0.76562306    -0.05700
C4797       C  0.97751431  0.74265898  0.75976840    -0.32700
C4798       C  0.97404987  0.73859660  0.74392033     0.36400
H4799       H  0.52647255  0.79136326  0.73168521     0.16700
O4800       O  0.53652281  0.80320763  0.76072295    -0.60200
H4801       H  0.96385015  0.72880372  0.76752810     0.16800
O4802       O  0.95376284  0.71699452  0.73861543    -0.60300
H4803       H  0.96622475  0.69830873  0.73687546     0.43700
H4804       H  0.52587674  0.82327344  0.76035500     0.43700
C4805       C  0.47282490  0.74708003  0.64158675    -0.05400
C4806       C  0.94393001  0.74464734  0.63446757    -0.32800
C4807       C  0.94102414  0.74589393  0.61837747     0.36500
C4808       C  0.46727058  0.75001193  0.60904419    -0.05700
C4809       C  0.49606932  0.75211911  0.61620466    -0.32700
C4810       C  0.49900557  0.75082240  0.63218356     0.36400
H4811       H  0.92344791  0.74175579  0.64137841     0.16700
O4812       O  0.91238613  0.74331890  0.61197667    -0.60200
H4813       H  0.51667193  0.75513150  0.60939704     0.16800
O4814       O  0.52777329  0.75353022  0.63843039    -0.60300
H4815       H  0.53104911  0.77589499  0.63973925     0.43700
H4816       H  0.90908802  0.72098492  0.61059043     0.43700
C4817       C  0.97965400  0.84163803  0.68615774    -0.05400
C4818       C  0.00385421  0.85769040  0.67916259    -0.32800
C4819       C  0.00437479  0.88981874  0.67900877     0.36500
C4820       C  0.48036018  0.90660719  0.68591072    -0.05700
C4821       C  0.45595395  0.89056778  0.69273933    -0.32700
C4822       C  0.45545071  0.85843717  0.69292039     0.36400
H4823       H  0.02249404  0.84530475  0.67373311     0.16700
O4824       O  0.02806525  0.90452742  0.67168880    -0.60200
H4825       H  0.43743336  0.90295631  0.69827109     0.16800
O4826       O  0.43189157  0.84378333  0.70037718    -0.60300
H4827       H  0.41480629  0.84313703  0.69285729     0.43700
H4828       H  0.04508550  0.90487596  0.67923010     0.43700
C4829       C  0.48347981  0.59149253  0.69101558    -0.05400
C4830       C  0.95552862  0.60753075  0.69062350    -0.32800
C4831       C  0.95475864  0.63961835  0.69038958     0.36500
C4832       C  0.98235535  0.65665283  0.69059346    -0.05700
C4833       C  0.51031758  0.64065651  0.69154911    -0.32700
C4834       C  0.51104899  0.60846712  0.69186726     0.36400
H4835       H  0.93396782  0.59518226  0.69020388     0.16700
O4836       O  0.92674932  0.65396043  0.68988430    -0.60200
H4837       H  0.53181993  0.65310314  0.69195292     0.16800
O4838       O  0.53892634  0.59396424  0.69274986    -0.60300
H4839       H  0.54310142  0.59180142  0.70389579     0.43700
H4840       H  0.92137899  0.65502722  0.67882768     0.43700
C4841       C  0.99022789  0.49167667  0.73413611    -0.05400
C4842       C  0.51285904  0.97215790  0.74021287    -0.32800
C4843       C  0.51580157  0.96814088  0.75612340     0.36500
C4844       C  0.49667139  0.98458849  0.76620185    -0.05700
C4845       C  0.97444085  0.50452268  0.76015723    -0.32700
C4846       C  0.97087473  0.50786080  0.74426031     0.36400
H4847       H  0.52797381  0.95957301  0.73259210     0.16700
O4848       O  0.53821327  0.94907507  0.76172349    -0.60200
H4849       H  0.95946386  0.51722038  0.76780436     0.16800
O4850       O  0.94865646  0.52726624  0.73875756    -0.60300
H4851       H  0.95888596  0.54748614  0.73771599     0.43700
H4852       H  0.52905153  0.92824983  0.76155524     0.43700
C4853       C  0.97420023  0.50297874  0.64193221    -0.05400
C4854       C  0.94511051  0.50519400  0.63500035    -0.32800
C4855       C  0.94187718  0.50565309  0.61894004     0.36500
C4856       C  0.46800986  0.00371284  0.60937799    -0.05700
C4857       C  0.49704773  0.00144378  0.61633967    -0.32700
C4858       C  0.50028670  0.00092412  0.63234567     0.36400
H4859       H  0.92465630  0.50661660  0.64204475     0.16700
O4860       O  0.91298123  0.50759676  0.61278054    -0.60200
H4861       H  0.51756331  0.99983788  0.60934970     0.16800
O4862       O  0.52921160  0.99834716  0.63842657    -0.60300
H4863       H  0.53303028  0.97597054  0.63924620     0.43700
H4864       H  0.90839184  0.52985192  0.61228703     0.43700
loop_ 
_geom_bond_atom_site_label_1 
_geom_bond_atom_site_label_2 
_geom_bond_distance 
_geom_bond_site_symmetry_2 
_ccdc_geom_bond_type 
O1         V1225   1.900       .  S
O1         C3659   1.264   1_455  A
O2            V9   1.900   1_545  S
O2         C2444   1.265   1_455  A
O3            V9   1.904   1_545  S
O3           C13   1.265   1_455  A
O4         V1225   1.898       .  S
O4           C14   1.264   1_455  A
O5         V1226   1.902       .  S
O5         C2446   1.265       .  A
O6           V10   1.899   1_545  S
O6         C2445   1.266       .  A
O7         V1226   1.907       .  S
O7         C1228   1.267       .  A
O8           V10   1.903       .  S
O8           C11   1.265       .  A
V9         O1217   1.900       .  S
V9         O1220   1.898       .  S
V9         V2442   2.084   1_455  T
V10        O1221   1.902       .  S
V10        O1223   1.907   1_565  S
V10        V2441   2.084       .  T
C11        O3649   1.264       .  A
C11        C1193   1.478       .  S
C12        O2434   1.265       .  A
C12        O1223   1.267       .  A
C12        C1205   1.491       .  S
C13        O2438   1.266       .  A
C13        C1181   1.488       .  S
C14        O2437   1.265       .  A
C14        C1172   1.482       .  S
O15          V23   1.905       .  S
O15        C2457   1.266       .  A
O16          V23   1.912       .  S
O16        C2458   1.268       .  A
O17          V23   1.894       .  S
O17          C27   1.263       .  A
O18          V23   1.896       .  S
O18          C28   1.264       .  A
O19          V24   1.903       .  S
O19        C2460   1.266   1_455  A
O20          V24   1.909       .  S
O20        C2459   1.268   1_455  A
O21          V24   1.895       .  S
O21          C26   1.264   1_455  A
O22          V24   1.897       .  S
O22          C25   1.263   1_455  A
V23        V2456   2.083       .  T
V24        V2455   2.083   1_455  T
C25        O2447   1.266       .  A
C25        C1145   1.476       .  S
C26        O2448   1.268       .  A
C26        C1157   1.491       .  S
C27        O2452   1.268       .  A
C27        C1184   1.489       .  S
C28        O2451   1.266       .  A
C28        C1169   1.482       .  S
O29        V1253   1.908       .  S
O29        C1255   1.267       .  A
O30          V37   1.906       .  S
O30          C40   1.266       .  A
O31          V37   1.895       .  S
O31          C41   1.264       .  A
O32        V1253   1.901       .  S
O32          C42   1.265       .  A
O33        V1254   1.898       .  S
O33          C42   1.265       .  A
O34          V38   1.899       .  S
O34          C41   1.265       .  A
O35        V1254   1.900   1_565  S
O35        C1256   1.264       .  A
O36          V38   1.898       .  S
O36          C39   1.265       .  A
V37        O1245   1.908       .  S
V37        O1248   1.901       .  S
V37          V38   2.084       .  T
V38        O1249   1.898       .  S
V38        O1251   1.900       .  S
C39        O1245   1.267       .  A
C39        C1136   1.491       .  S
C40        O1251   1.264       .  A
C40        C2337   1.483       .  S
C41        C1097   1.483       .  S
C42        C1109   1.486       .  S
O43          V51   1.900       .  S
O43          C53   1.264       .  A
O44          V51   1.901       .  S
O44          C54   1.265       .  A
O45          V51   1.901       .  S
O45          C55   1.265       .  A
O46          V51   1.898       .  S
O46          C56   1.264       .  A
O47          V52   1.897       .  S
O47          C56   1.265       .  A
O48          V52   1.897       .  S
O48          C55   1.264       .  A
O49          V52   1.907       .  S
O49          C54   1.267       .  A
O50          V52   1.908       .  S
O50          C53   1.266       .  A
V51          V52   2.084       .  T
C53        C1073   1.483       .  S
C54        C1085   1.492       .  S
C55        C1112   1.486       .  S
C56        C1100   1.483       .  S
O57        V2497   1.896   1_545  S
O57        C3715   1.263   1_545  A
O58          V65   1.897       .  S
O58        C1284   1.264       .  A
O59          V65   1.905   1_545  S
O59          C69   1.267   1_545  A
O60        V2497   1.901   1_545  S
O60          C70   1.265   1_545  A
O61        V2498   1.894       .  S
O61        C1286   1.264       .  A
O62          V66   1.892       .  S
O62        C1285   1.263       .  A
O63        V2498   1.906       .  S
O63        C2500   1.267       .  A
O64          V66   1.904       .  S
O64          C67   1.265   1_455  A
V65        O2489   1.896   1_465  S
V65        O2492   1.901   1_465  S
V65        V1282   2.084       .  T
V66        O2493   1.894   1_455  S
V66        O2495   1.906       .  S
V66        V1281   2.084       .  T
C67        O3705   1.263       .  A
C67        C1196   1.473       .  S
C68        O1274   1.264       .  A
C68        O2495   1.267       .  A
C68        C1064   1.489       .  S
C69        O1278   1.263       .  A
C69        C1049   1.485       .  S
C70        O1277   1.264       .  A
C70        C1040   1.483       .  S
O71        V2511   1.910       .  S
O71        C2513   1.267       .  A
O72          V79   1.912       .  S
O72          C82   1.268       .  A
O73          V79   1.891       .  S
O73          C83   1.263       .  A
O74        V2511   1.894       .  S
O74          C84   1.263       .  A
O75        V2512   1.900       .  S
O75          C84   1.266       .  A
O76          V80   1.906       .  S
O76          C83   1.267       .  A
O77        V2512   1.890       .  S
O77        C2514   1.262       .  A
O78          V80   1.891   1_655  S
O78          C81   1.262   1_655  A
V79        O2503   1.910       .  S
V79        O2506   1.894   1_455  S
V79          V80   2.084       .  T
V80        O2507   1.900   1_455  S
V80        O2509   1.890       .  S
C81        O2503   1.267       .  A
C81        C1148   1.476   1_455  S
C82        O2509   1.262       .  A
C82        C1028   1.489       .  S
C83        C1013   1.486       .  S
C84        C1004   1.482       .  S
O85          V93   1.910       .  S
O85        C1311   1.266       .  A
O86          V93   1.906       .  S
O86        C1312   1.266       .  A
O87          V93   1.900       .  S
O87          C97   1.265       .  A
O88          V93   1.904       .  S
O88          C98   1.266       .  A
O89          V94   1.893       .  S
O89        C1314   1.264       .  A
O90          V94   1.894       .  S
O90        C1313   1.264       .  A
O91          V94   1.897   1_545  S
O91          C96   1.263   1_545  A
O92          V94   1.896       .  S
O92          C95   1.265       .  A
V93        V1310   2.084       .  T
V94        V1309   2.084       .  T
C95        O1301   1.266       .  A
C95         C992   1.488       .  S
C96        O1302   1.266       .  A
C96        C1124   1.473       .  S
C97        O1306   1.264       .  A
C97        C1037   1.482       .  S
C98        O1305   1.264       .  A
C98        C1052   1.485       .  S
O99         V107   1.898       .  S
O99         C109   1.266       .  A
O100        V107   1.900       .  S
O100        C110   1.264       .  A
O101        V107   1.890       .  S
O101        C111   1.263       .  A
O102        V107   1.899       .  S
O102        C112   1.264       .  A
O103        V108   1.900       .  S
O103        C112   1.266       .  A
O104        V108   1.902       .  S
O104        C111   1.266       .  A
O105        V108   1.906       .  S
O105        C110   1.266       .  A
O106        V108   1.909       .  S
O106        C109   1.266       .  A
V107        V108   2.084       .  T
C109        C977   1.491       .  S
C110       C1076   1.476       .  S
C111       C1001   1.482       .  S
C112       C1016   1.486       .  S
O113       V1337   1.906       .  S
O113       C3771   1.266       .  A
O114        V121   1.901       .  S
O114       C2556   1.265       .  A
O115        V121   1.896       .  S
O115        C125   1.265       .  A
O116       V1337   1.901       .  S
O116        C126   1.265       .  A
O117       V1338   1.898       .  S
O117       C2558   1.264   1_455  A
O118        V122   1.899       .  S
O118       C2557   1.265   1_455  A
O119       V1338   1.906       .  S
O119       C1340   1.265   1_455  A
O120        V122   1.903       .  S
O120        C123   1.266   1_455  A
V121       O1329   1.906       .  S
V121       O1332   1.901       .  S
V121       V2554   2.084       .  T
V122       O1333   1.898       .  S
V122       O1335   1.906       .  S
V122       V2553   2.084   1_455  T
C123       O3761   1.266       .  A
C123        C968   1.493       .  S
C124       O2546   1.265       .  A
C124       O1335   1.265   1_655  A
C124        C956   1.479       .  S
C125       O2550   1.265       .  A
C125        C932   1.483       .  S
C126       O2549   1.264       .  A
C126        C941   1.484       .  S
O127        V135   1.904       .  S
O127       C2569   1.265       .  A
O128        V135   1.901       .  S
O128       C2570   1.265       .  A
O129        V135   1.902       .  S
O129        C139   1.265       .  A
O130        V135   1.897       .  S
O130        C140   1.264       .  A
O131        V136   1.898       .  S
O131       C2572   1.265   1_455  A
O132        V136   1.896       .  S
O132       C2571   1.264   1_455  A
O133        V136   1.906       .  S
O133        C138   1.265   1_455  A
O134        V136   1.903       .  S
O134        C137   1.267   1_455  A
V135       V2568   2.084       .  T
V136       V2567   2.084   1_455  T
C137       O2559   1.265       .  A
C137        C917   1.490       .  S
C138       O2560   1.265       .  A
C138        C905   1.480       .  S
C139       O2564   1.264       .  A
C139        C944   1.485       .  S
C140       O2563   1.265       .  A
C140        C929   1.483       .  S
O141       V1365   1.911       .  S
O141       C1367   1.267       .  A
O142        V149   1.911       .  S
O142        C152   1.267   1_545  A
O143        V149   1.896       .  S
O143        C153   1.264       .  A
O144       V1365   1.898       .  S
O144        C154   1.264       .  A
O145       V1366   1.898       .  S
O145        C154   1.265       .  A
O146        V150   1.905       .  S
O146        C153   1.266       .  A
O147       V1366   1.900       .  S
O147       C1368   1.263       .  A
O148        V150   1.895       .  S
O148        C151   1.264       .  A
V149       O1357   1.911       .  S
V149       O1360   1.898   1_545  S
V149        V150   2.083       .  T
V150       O1361   1.898   1_545  S
V150       O1363   1.900   1_545  S
C151       O1357   1.267       .  A
C151        C896   1.489       .  S
C152       O1363   1.263       .  A
C152        C881   1.480       .  S
C153        C872   1.486       .  S
C154        C857   1.484       .  S
O155        V163   1.902       .  S
O155        C165   1.265       .  A
O156        V163   1.901       .  S
O156        C166   1.266       .  A
O157        V163   1.900       .  S
O157        C167   1.265       .  A
O158        V163   1.900       .  S
O158        C168   1.265       .  A
O159        V164   1.900       .  S
O159        C168   1.265       .  A
O160        V164   1.898       .  S
O160        C167   1.265       .  A
O161        V164   1.900       .  S
O161        C166   1.264       .  A
O162        V164   1.902       .  S
O162        C165   1.265       .  A
V163        V164   2.085       .  T
C165        C833   1.478       .  S
C166        C845   1.484       .  S
C167        C860   1.484       .  S
C168        C869   1.485       .  S
O169       V1393   1.911       .  S
O169       C3827   1.267       .  A
O170        V177   1.911       .  S
O170       C2612   1.267       .  A
O171        V177   1.898       .  S
O171        C181   1.265       .  A
O172       V1393   1.898   1_545  S
O172        C182   1.264       .  A
O173       V1394   1.897   1_545  S
O173       C2614   1.265       .  A
O174        V178   1.901       .  S
O174       C2613   1.265       .  A
O175       V1394   1.899       .  S
O175       C1396   1.265       .  A
O176        V178   1.899       .  S
O176        C179   1.265       .  A
V177       O1385   1.911       .  S
V177       O1388   1.898       .  S
V177       V2610   2.084       .  T
V178       O1389   1.897       .  S
V178       O1391   1.899       .  S
V178       V2609   2.084       .  T
C179       O3817   1.267       .  A
C179        C821   1.491       .  S
C180       O2602   1.267       .  A
C180       O1391   1.265       .  A
C180        C965   1.493       .  S
C181       O2606   1.265       .  A
C181        C800   1.486       .  S
C182       O2605   1.265       .  A
C182        C809   1.480       .  S
O183        V191   1.913       .  S
O183       C2625   1.268       .  A
O184        V191   1.913       .  S
O184       C2626   1.268       .  A
O185        V191   1.902       .  S
O185        C195   1.265       .  A
O186        V191   1.897       .  S
O186        C196   1.265       .  A
O187        V192   1.900       .  S
O187       C2628   1.265       .  A
O188        V192   1.897       .  S
O188       C2627   1.264       .  A
O189        V192   1.893       .  S
O189        C194   1.263       .  A
O190        V192   1.894       .  S
O190        C193   1.263       .  A
V191       V2624   2.084       .  T
V192       V2623   2.084       .  T
C193       O2615   1.268       .  A
C193        C785   1.491       .  S
C194       O2616   1.268       .  A
C194        C920   1.490       .  S
C195       O2620   1.264       .  A
C195        C812   1.481       .  S
C196       O2619   1.265       .  A
C196        C797   1.485       .  S
O197       V1421   1.906       .  S
O197       C1423   1.265       .  A
O198        V205   1.907       .  S
O198        C208   1.266       .  A
O199        V205   1.900       .  S
O199        C209   1.265       .  A
O200       V1421   1.898   1_545  S
O200        C210   1.265       .  A
O201       V1422   1.898   1_545  S
O201        C210   1.264       .  A
O202        V206   1.895       .  S
O202        C209   1.263       .  A
O203       V1422   1.900       .  S
O203       C1424   1.266       .  A
O204        V206   1.898       .  S
O204        C207   1.266       .  A
V205       O1413   1.906       .  S
V205       O1416   1.898       .  S
V205        V206   2.084       .  T
V206       O1417   1.898       .  S
V206       O1419   1.900       .  S
C207       O1413   1.265       .  A
C207        C893   1.488       .  S
C208       O1419   1.266       .  A
C208        C776   1.491       .  S
C209        C749   1.484       .  S
C210        C761   1.484       .  S
O211        V219   1.891       .  S
O211        C221   1.263       .  A
O212        V219   1.890       .  S
O212        C222   1.262       .  A
O213        V219   1.900       .  S
O213        C223   1.265       .  A
O214        V219   1.898       .  S
O214        C224   1.265       .  A
O215        V220   1.897       .  S
O215        C224   1.264       .  A
O216        V220   1.895       .  S
O216        C223   1.264       .  A
O217        V220   1.911       .  S
O217        C222   1.268       .  A
O218        V220   1.914       .  S
O218        C221   1.268       .  A
V219        V220   2.084       .  T
C221        C737   1.491       .  S
C222        C848   1.484       .  S
C223        C764   1.484       .  S
C224        C752   1.484       .  S
O225       V2665   1.910       .  S
O225       C3883   1.267   1_655  A
O226        V233   1.909       .  S
O226       C1452   1.267       .  A
O227        V233   1.905       .  S
O227        C237   1.266       .  A
O228       V2665   1.905   1_455  S
O228        C238   1.266       .  A
O229       V2666   1.891   1_455  S
O229       C1454   1.263       .  A
O230        V234   1.894       .  S
O230       C1453   1.263       .  A
O231       V2666   1.892       .  S
O231       C2668   1.263       .  A
O232        V234   1.892       .  S
O232        C235   1.263       .  A
V233       O2657   1.910       .  S
V233       O2660   1.905       .  S
V233       V1450   2.084       .  T
V234       O2661   1.891       .  S
V234       O2663   1.892       .  S
V234       V1449   2.084       .  T
C235       O3873   1.267       .  A
C235        C713   1.489       .  S
C236       O1442   1.267       .  A
C236       O2663   1.263       .  A
C236        C725   1.487       .  S
C237       O1446   1.263       .  A
C237        C692   1.484       .  S
C238       O1445   1.263       .  A
C238        C701   1.483       .  S
O239       V2679   1.910       .  S
O239       C2681   1.267       .  A
O240        V247   1.906       .  S
O240        C250   1.266       .  A
O241        V247   1.897       .  S
O241        C251   1.264       .  A
O242       V2679   1.900       .  S
O242        C252   1.264       .  A
O243       V2680   1.898       .  S
O243        C252   1.265       .  A
O244        V248   1.902       .  S
O244        C251   1.265       .  A
O245       V2680   1.895       .  S
O245       C2682   1.264       .  A
O246        V248   1.894   1_655  S
O246        C249   1.264       .  A
V247       O2671   1.910   1_455  S
V247       O2674   1.900   1_455  S
V247        V248   2.085       .  T
V248       O2675   1.898   1_455  S
V248       O2677   1.895       .  S
C249       O2671   1.267       .  A
C249        C665   1.489       .  S
C250       O2677   1.264       .  A
C250        C677   1.487       .  S
C251        C653   1.484       .  S
C252        C641   1.483       .  S
O253        V261   1.907       .  S
O253       C1479   1.267       .  A
O254        V261   1.907       .  S
O254       C1480   1.267       .  A
O255        V261   1.894       .  S
O255        C265   1.264       .  A
O256        V261   1.894       .  S
O256        C266   1.263       .  A
O257        V262   1.901       .  S
O257       C1482   1.266       .  A
O258        V262   1.905       .  S
O258       C1481   1.266       .  A
O259        V262   1.895       .  S
O259        C264   1.263       .  A
O260        V262   1.894       .  S
O260        C263   1.263       .  A
V261       V1478   2.084       .  T
V262       V1477   2.084       .  T
C263       O1469   1.267       .  A
C263        C629   1.488       .  S
C264       O1470   1.267       .  A
C264        C620   1.486       .  S
C265       O1474   1.266       .  A
C265        C689   1.484       .  S
C266       O1473   1.266       .  A
C266        C704   1.482       .  S
O267        V275   1.902       .  S
O267        C277   1.266       .  A
O268        V275   1.900       .  S
O268        C278   1.265       .  A
O269        V275   1.895       .  S
O269        C279   1.264       .  A
O270        V275   1.899       .  S
O270        C280   1.264       .  A
O271        V276   1.899       .  S
O271        C280   1.266       .  A
O272        V276   1.905       .  S
O272        C279   1.266       .  A
O273        V276   1.904       .  S
O273        C278   1.265       .  A
O274        V276   1.901       .  S
O274        C277   1.265       .  A
V275        V276   2.084       .  T
C277        C605   1.485       .  S
C278        C593   1.484       .  S
C279        C644   1.484       .  S
C280        C656   1.484       .  S
O281       V2721   1.898       .  S
O281       C3939   1.265   1_545  A
O282        V289   1.904       .  S
O282       C1508   1.265   1_545  A
O283        V289   1.900   1_455  S
O283        C293   1.265   1_545  A
O284       V2721   1.905       .  S
O284        C294   1.266   1_545  A
O285       V2722   1.892       .  S
O285       C1510   1.263       .  A
O286        V290   1.896   1_455  S
O286       C1509   1.264       .  A
O287       V2722   1.902       .  S
O287       C2724   1.265       .  A
O288        V290   1.903       .  S
O288        C291   1.265       .  A
V289       O2713   1.898       .  S
V289       O2716   1.905       .  S
V289       V1506   2.085   1_545  T
V290       O2717   1.892       .  S
V290       O2719   1.902       .  S
V290       V1505   2.085       .  T
C291       O3929   1.265       .  A
C291        C728   1.486       .  S
C292       O1498   1.265       .  A
C292       O2719   1.265       .  A
C292        C953   1.479       .  S
C293       O1502   1.264       .  A
C293        C581   1.485       .  S
C294       O1501   1.263       .  A
C294        C569   1.482       .  S
O295       V2735   1.902       .  S
O295       C2737   1.265       .  A
O296        V303   1.903       .  S
O296        C306   1.265       .  A
O297        V303   1.904   1_455  S
O297        C307   1.266       .  A
O298       V2735   1.900       .  S
O298        C308   1.265       .  A
O299       V2736   1.895       .  S
O299        C308   1.264       .  A
O300        V304   1.894   1_455  S
O300        C307   1.264       .  A
O301       V2736   1.902       .  S
O301       C2738   1.265       .  A
O302        V304   1.901       .  S
O302        C305   1.265   1_655  A
V303       O2727   1.902   1_655  S
V303       O2730   1.900       .  S
V303        V304   2.084       .  T
V304       O2731   1.895       .  S
V304       O2733   1.902       .  S
C305       O2727   1.265       .  A
C305        C680   1.488       .  S
C306       O2733   1.265       .  A
C306        C908   1.477       .  S
C307        C557   1.486       .  S
C308        C545   1.484       .  S
O309        V317   1.907       .  S
O309       C1535   1.266       .  A
O310        V317   1.906       .  S
O310       C1536   1.266       .  A
O311        V317   1.901       .  S
O311        C321   1.266       .  A
O312        V317   1.900       .  S
O312        C322   1.265       .  A
O313        V318   1.898       .  S
O313       C1538   1.265   1_545  A
O314        V318   1.895       .  S
O314       C1537   1.263   1_545  A
O315        V318   1.898       .  S
O315        C320   1.265   1_545  A
O316        V318   1.904       .  S
O316        C319   1.265   1_545  A
V317       V1534   2.084       .  T
V318       V1533   2.084   1_545  T
C319       O1525   1.266       .  A
C319        C884   1.485       .  S
C320       O1526   1.266       .  A
C320        C632   1.489       .  S
C321       O1530   1.263       .  A
C321        C572   1.482       .  S
C322       O1529   1.265       .  A
C322        C584   1.485       .  S
O323        V331   1.902       .  S
O323        C333   1.264       .  A
O324        V331   1.900       .  S
O324        C334   1.265       .  A
O325        V331   1.902       .  S
O325        C335   1.267       .  A
O326        V331   1.900       .  S
O326        C336   1.265       .  A
O327        V332   1.898       .  S
O327        C336   1.265       .  A
O328        V332   1.892       .  S
O328        C335   1.263       .  A
O329        V332   1.903       .  S
O329        C334   1.266       .  A
O330        V332   1.904       .  S
O330        C333   1.265       .  A
V331        V332   2.085       .  T
C333        C836   1.477       .  S
C334        C608   1.484       .  S
C335        C548   1.483       .  S
C336        C560   1.485       .  S
O337       V2777   1.895       .  S
O337       C3995   1.264       .  A
O338        V345   1.892   1_455  S
O338       C1564   1.264       .  A
O339        V345   1.898   1_455  S
O339        C349   1.265       .  A
O340       V2777   1.901       .  S
O340        C350   1.266       .  A
O341       V2778   1.897       .  S
O341       C1566   1.264       .  A
O342        V346   1.896   1_455  S
O342       C1565   1.263       .  A
O343       V2778   1.911       .  S
O343       C2780   1.267       .  A
O344        V346   1.909       .  S
O344        C347   1.267       .  A
V345       O2769   1.895       .  S
V345       O2772   1.901       .  S
V345       V1562   2.084       .  T
V346       O2773   1.897       .  S
V346       O2775   1.911       .  S
V346       V1561   2.084       .  T
C347       O3985   1.264       .  A
C347       C1061   1.488   1_655  S
C348       O1554   1.264       .  A
C348       O2775   1.267   1_455  A
C348        C716   1.489       .  S
C349       O1558   1.263       .  A
C349        C536   1.482       .  S
C350       O1557   1.264       .  A
C350        C521   1.485       .  S
O351       V2791   1.906       .  S
O351       C2793   1.266       .  A
O352        V359   1.905       .  S
O352        C362   1.266       .  A
O353        V359   1.898       .  S
O353        C363   1.265       .  A
O354       V2791   1.896       .  S
O354        C364   1.265       .  A
O355       V2792   1.898       .  S
O355        C364   1.264       .  A
O356        V360   1.898       .  S
O356        C363   1.264       .  A
O357       V2792   1.896       .  S
O357       C2794   1.264       .  A
O358        V360   1.898       .  S
O358        C361   1.265       .  A
V359       O2783   1.906       .  S
V359       O2786   1.896   1_455  S
V359        V360   2.084       .  T
V360       O2787   1.898   1_455  S
V360       O2789   1.896       .  S
C361       O2783   1.266       .  A
C361       C1025   1.489       .  S
C362       O2789   1.264       .  A
C362        C668   1.488       .  S
C363        C509   1.484       .  S
C364        C497   1.483       .  S
O365        V373   1.906       .  S
O365       C1591   1.266       .  A
O366        V373   1.908       .  S
O366       C1592   1.266       .  A
O367        V373   1.899       .  S
O367        C377   1.265       .  A
O368        V373   1.898       .  S
O368        C378   1.265       .  A
O369        V374   1.896       .  S
O369       C1594   1.264       .  A
O370        V374   1.898       .  S
O370       C1593   1.264       .  A
O371        V374   1.896       .  S
O371        C376   1.264       .  A
O372        V374   1.896       .  S
O372        C375   1.264       .  A
V373       V1590   2.084       .  T
V374       V1589   2.084       .  T
C375       O1581   1.266       .  A
C375        C617   1.486       .  S
C376       O1582   1.266       .  A
C376        C989   1.487       .  S
C377       O1586   1.264       .  A
C377        C524   1.484       .  S
C378       O1585   1.264       .  A
C378        C533   1.482       .  S
O379        V387   1.894       .  S
O379        C389   1.263       .  A
O380        V387   1.894       .  S
O380        C390   1.264       .  A
O381        V387   1.897       .  S
O381        C391   1.264       .  A
O382        V387   1.899       .  S
O382        C392   1.265       .  A
O383        V388   1.899       .  S
O383        C392   1.264       .  A
O384        V388   1.897       .  S
O384        C391   1.264       .  A
O385        V388   1.912       .  S
O385        C390   1.268       .  A
O386        V388   1.910       .  S
O386        C389   1.267       .  A
V387        V388   2.084       .  T
C389        C596   1.483       .  S
C390        C980   1.491       .  S
C391        C500   1.483       .  S
C392        C512   1.484       .  S
O393       V1617   1.911       .  S
O393       C4051   1.267       .  A
O394        V401   1.912       .  S
O394       C2836   1.267       .  A
O395        V401   1.895       .  S
O395        C405   1.263       .  A
O396       V1617   1.896       .  S
O396        C406   1.264       .  A
O397       V1618   1.900       .  S
O397       C2838   1.265       .  A
O398        V402   1.900       .  S
O398       C2837   1.266       .  A
O399       V1618   1.898       .  S
O399       C1620   1.265       .  A
O400        V402   1.899       .  S
O400        C403   1.265       .  A
V401       O1609   1.911       .  S
V401       O1612   1.896       .  S
V401       V2834   2.084       .  T
V402       O1613   1.900       .  S
V402       O1615   1.898       .  S
V402       V2833   2.084       .  T
C403       O4041   1.267       .  A
C403       C1208   1.492       .  S
C404       O2826   1.267       .  A
C404       O1615   1.265       .  A
C404        C824   1.490       .  S
C405       O2830   1.266       .  A
C405        C473   1.484       .  S
C406       O2829   1.265       .  A
C406        C485   1.484       .  S
O407        V415   1.909       .  S
O407       C2849   1.266       .  A
O408        V415   1.908       .  S
O408       C2850   1.266       .  A
O409        V415   1.899       .  S
O409        C419   1.265       .  A
O410        V415   1.902       .  S
O410        C420   1.266       .  A
O411        V416   1.895       .  S
O411       C2852   1.264       .  A
O412        V416   1.895       .  S
O412       C2851   1.263       .  A
O413        V416   1.900       .  S
O413        C418   1.265       .  A
O414        V416   1.898       .  S
O414        C417   1.266       .  A
V415       V2848   2.084       .  T
V416       V2847   2.084       .  T
C417       O2839   1.266       .  A
C417       C1160   1.491       .  S
C418       O2840   1.266       .  A
C418        C788   1.490       .  S
C419       O2844   1.263       .  A
C419        C488   1.483       .  S
C420       O2843   1.264       .  A
C420        C476   1.484       .  S
O421       V1645   1.909       .  S
O421       C1647   1.267       .  A
O422        V429   1.908       .  S
O422        C432   1.266       .  A
O423        V429   1.900       .  S
O423        C433   1.265       .  A
O424       V1645   1.900   1_545  S
O424        C434   1.265       .  A
O425       V1646   1.894   1_545  S
O425        C434   1.263       .  A
O426        V430   1.896       .  S
O426        C433   1.264       .  A
O427       V1646   1.900       .  S
O427       C1648   1.266       .  A
O428        V430   1.897       .  S
O428        C431   1.265       .  A
V429       O1637   1.909       .  S
V429       O1640   1.900       .  S
V429        V430   2.084       .  T
V430       O1641   1.894       .  S
V430       O1643   1.900       .  S
C431       O1637   1.267       .  A
C431        C773   1.491       .  S
C432       O1643   1.266       .  A
C432       C1133   1.492       .  S
C433        C449   1.484       .  S
C434        C461   1.483       .  S
O435        V443   1.907       .  S
O435        C445   1.266       .  A
O436        V443   1.906       .  S
O436        C446   1.266       .  A
O437        V443   1.895       .  S
O437        C447   1.263       .  A
O438        V443   1.896       .  S
O438        C448   1.264       .  A
O439        V444   1.901       .  S
O439        C448   1.265       .  A
O440        V444   1.899       .  S
O440        C447   1.266       .  A
O441        V444   1.903       .  S
O441        C446   1.266       .  A
O442        V444   1.899       .  S
O442        C445   1.266       .  A
V443        V444   2.084       .  T
C445        C740   1.491       .  S
C446       C1088   1.492       .  S
C447        C464   1.483       .  S
C448        C452   1.484       .  S
C449        C450   1.406       .  A
C449        C454   1.411       .  A
C450        C451   1.400       .  A
C450        H455   1.083       .  S
C451        C452   1.411       .  A
C451        O456   1.372       .  S
C452        C453   1.406       .  A
C453        C454   1.399       .  A
C453        H457   1.083       .  S
C454        O458   1.371       .  S
O456        H460   0.991       .  S
O458        H459   0.991       .  S
C461        C462   1.405       .  A
C461        C466   1.412       .  A
C462        C463   1.400       .  A
C462        H467   1.084       .  S
C463        C464   1.413       .  A
C463        O468   1.372       .  S
C464        C465   1.404       .  A
C465        C466   1.398       .  A
C465        H469   1.083       .  S
C466        O470   1.372       .  S
O468        H472   0.992       .  S
O470        H471   0.992       .  S
C473        C478   1.412       .  A
C473       C2906   1.404       .  A
C474        C475   1.398       .  A
C474       C2905   1.404       .  A
C474        H479   1.083   1_655  S
C475       C2908   1.412       .  A
C475        O480   1.371   1_655  S
C476        C477   1.405       .  A
C476       C2907   1.412       .  A
C477        C478   1.400       .  A
C477        H481   1.084       .  S
C478        O482   1.371       .  S
O480        H484   0.992       .  S
O482        H483   0.992       .  S
C485        C490   1.412       .  A
C485       C2918   1.405       .  A
C486        C487   1.400       .  A
C486       C2917   1.405       .  A
C486        H491   1.083   1_655  S
C487       C2920   1.412       .  A
C487        O492   1.372   1_655  S
C488        C489   1.404       .  A
C488       C2919   1.412       .  A
C489        C490   1.398       .  A
C489        H493   1.083       .  S
C490        O494   1.372       .  S
O492        H496   0.992       .  S
O494        H495   0.992       .  S
C497        C498   1.405       .  A
C497        C502   1.411       .  A
C498        C499   1.398       .  A
C498        H503   1.082       .  S
C499        C500   1.411       .  A
C499        O504   1.371       .  S
C500        C501   1.406       .  A
C501        C502   1.399       .  A
C501        H505   1.083       .  S
C502        O506   1.372       .  S
O504        H508   0.992       .  S
O506        H507   0.992       .  S
C509        C510   1.405       .  A
C509        C514   1.411       .  A
C510        C511   1.400       .  A
C510        H515   1.083       .  S
C511        C512   1.412       .  A
C511        O516   1.371       .  S
C512        C513   1.405       .  A
C513        C514   1.399       .  A
C513        H517   1.083       .  S
C514        O518   1.372       .  S
O516        H520   0.992       .  S
O518        H519   0.992       .  S
C521        C522   1.405       .  A
C521       C1742   1.412       .  A
C522        C523   1.400       .  A
C522        H527   1.083   1_565  S
C523       C1740   1.412       .  A
C523        O528   1.372   1_565  S
C524        C525   1.404       .  A
C524       C1739   1.412       .  A
C525        C526   1.399       .  A
C525        H529   1.083       .  S
C526       C1737   1.412       .  A
C526        O530   1.371       .  S
O528        H532   0.992       .  S
O530        H531   0.991       .  S
C533        C534   1.405       .  A
C533       C1754   1.411       .  A
C534        C535   1.399       .  A
C534        H539   1.083       .  S
C535       C1752   1.412       .  A
C535        O540   1.372       .  S
C536        C537   1.404       .  A
C536       C1751   1.412       .  A
C537        C538   1.398       .  A
C537        H541   1.083   1_565  S
C538       C1749   1.411       .  A
C538        O542   1.372   1_565  S
O540        H544   0.991       .  S
O542        H543   0.992       .  S
C545        C546   1.405       .  A
C545        C550   1.412       .  A
C546        C547   1.399       .  A
C546        H551   1.083       .  S
C547        C548   1.413       .  A
C547        O552   1.372       .  S
C548        C549   1.404       .  A
C549        C550   1.399       .  A
C549        H553   1.083       .  S
C550        O554   1.372       .  S
O552        H556   0.992       .  S
O554        H555   0.992       .  S
C557        C558   1.407       .  A
C557        C562   1.411       .  A
C558        C559   1.400       .  A
C558        H563   1.083       .  S
C559        C560   1.411       .  A
C559        O564   1.372       .  S
C560        C561   1.406       .  A
C561        C562   1.400       .  A
C561        H565   1.083       .  S
C562        O566   1.371       .  S
O564        H568   0.992       .  S
O566        H567   0.992       .  S
C569        C570   1.404   1_565  A
C569       C1790   1.412       .  A
C570        C571   1.400       .  A
C570        H575   1.083       .  S
C571       C1788   1.413   1_545  A
C571        O576   1.372       .  S
C572        C573   1.403       .  A
C572       C1787   1.413       .  A
C573        C574   1.398       .  A
C573        H577   1.083       .  S
C574       C1785   1.412       .  A
C574        O578   1.372       .  S
O576        H580   0.992       .  S
O578        H579   0.992       .  S
C581        C586   1.411   1_565  A
C581       C1798   1.406       .  A
C582        C583   1.400       .  A
C582       C1797   1.406       .  A
C582        H587   1.083       .  S
C583        C584   1.411       .  A
C583        O588   1.372       .  S
C584       C1801   1.406       .  A
C585        C586   1.399       .  A
C585       C1800   1.406   1_545  A
C585        H589   1.083       .  S
C586        O590   1.372       .  S
O588        H592   0.992       .  S
O590        H591   0.992       .  S
C593        C594   1.403       .  A
C593        C598   1.412       .  A
C594        C595   1.398   1_554  A
C594        H599   1.084       .  S
C595        C596   1.411       .  A
C595        O600   1.372       .  S
C596        C597   1.405       .  A
C597        C598   1.404   1_556  A
C597        H601   1.083       .  S
C598        O602   1.372       .  S
O600        H604   0.992       .  S
O602        H603   0.992       .  S
C605        C606   1.405       .  A
C605        C610   1.412       .  A
C606        C607   1.401       .  A
C606        H611   1.083       .  S
C607        C608   1.411       .  A
C607        O612   1.372       .  S
C608        C609   1.405       .  A
C609        C610   1.401       .  A
C609        H613   1.084       .  S
C610        O614   1.372       .  S
O612        H616   0.991       .  S
O614        H615   0.992       .  S
C617        C618   1.405       .  A
C617       C1838   1.412       .  A
C618        C619   1.399   1_556  A
C618        H623   1.084   1_565  S
C619        C620   1.412       .  A
C619        O624   1.372   1_565  S
C620       C1837   1.406       .  A
C621        C622   1.402   1_554  A
C621       C1836   1.406       .  A
C621        H625   1.083       .  S
C622       C1833   1.412       .  A
C622        O626   1.371       .  S
O624        H628   0.990       .  S
O626        H627   0.990       .  S
C629        C634   1.413       .  A
C629       C1846   1.406       .  A
C630        C631   1.404       .  A
C630       C1845   1.406       .  A
C630        H635   1.083       .  S
C631       C1848   1.413       .  A
C631        O636   1.371       .  S
C632        C633   1.405       .  A
C632       C1847   1.413       .  A
C633        C634   1.398       .  A
C633        H637   1.083   1_565  S
C634        O638   1.372   1_565  S
O636        H640   0.991       .  S
O638        H639   0.992       .  S
C641        C642   1.403       .  A
C641        C646   1.412       .  A
C642        C643   1.397       .  A
C642        H647   1.083       .  S
C643        C644   1.411       .  A
C643        O648   1.371       .  S
C644        C645   1.406       .  A
C645        C646   1.403       .  A
C645        H649   1.084       .  S
C646        O650   1.371       .  S
O648        H652   0.992       .  S
O650        H651   0.992       .  S
C653        C654   1.406       .  A
C653        C658   1.412       .  A
C654        C655   1.402       .  A
C654        H659   1.083       .  S
C655        C656   1.413       .  A
C655        O660   1.372       .  S
C656        C657   1.404       .  A
C657        C658   1.398       .  A
C657        H661   1.083       .  S
C658        O662   1.372       .  S
O660        H664   0.992       .  S
O662        H663   0.992       .  S
C665        C670   1.411   1_655  A
C665       C3098   1.406       .  A
C666        C667   1.398   1_554  A
C666       C3097   1.406       .  A
C666        H671   1.083       .  S
C667       C3100   1.412       .  A
C667        O672   1.372       .  S
C668        C669   1.406       .  A
C668       C3099   1.412   1_455  A
C669        C670   1.404   1_556  A
C669        H673   1.082       .  S
C670        O674   1.371       .  S
O672        H676   0.991       .  S
O674        H675   0.992       .  S
C677        C678   1.406   1_455  A
C677       C3114   1.411       .  A
C678        C679   1.400       .  A
C678        H683   1.083       .  S
C679        C680   1.412   1_655  A
C679        O684   1.372       .  S
C680       C3113   1.407       .  A
C681        C682   1.402       .  A
C681       C3112   1.407       .  A
C681        H685   1.083       .  S
C682       C3109   1.411       .  A
C682        O686   1.372       .  S
O684        H688   0.991   1_655  S
O686        H687   0.991       .  S
C689        C690   1.406       .  A
C689       C1910   1.410       .  A
C690        C691   1.399       .  A
C690        H695   1.084       .  S
C691        C692   1.410       .  A
C691        O696   1.371       .  S
C692       C1909   1.407       .  A
C693        C694   1.401       .  A
C693       C1908   1.407       .  A
C693        H697   1.083   1_565  S
C694       C1905   1.410       .  A
C694        O698   1.372   1_565  S
O696        H700   0.990       .  S
O698        H699   0.988       .  S
C701        C702   1.405       .  A
C701       C1922   1.413       .  A
C702        C703   1.401       .  A
C702        H707   1.084       .  S
C703        C704   1.413       .  A
C703        O708   1.372       .  S
C704       C1921   1.403       .  A
C705        C706   1.397       .  A
C705       C1920   1.403       .  A
C705        H709   1.083   1_565  S
C706       C1917   1.413       .  A
C706        O710   1.372   1_565  S
O708        H712   0.992       .  S
O710        H711   0.992       .  S
C713        C718   1.412       .  A
C713       C4362   1.407       .  A
C714        C715   1.406   1_554  A
C714       C4361   1.407       .  A
C714        H719   1.082       .  S
C715        C716   1.412       .  A
C715        O720   1.370       .  S
C716       C4365   1.405       .  A
C717        C718   1.396   1_556  A
C717       C4364   1.405       .  A
C717        H721   1.083   1_565  S
C718        O722   1.372   1_565  S
O720        H724   0.992   1_455  S
O722        H723   0.992       .  S
C725        C730   1.413       .  A
C725       C4374   1.406       .  A
C726        C727   1.404       .  A
C726       C4373   1.406       .  A
C726        H731   1.083       .  S
C727        C728   1.413       .  A
C727        O732   1.372       .  S
C728       C4377   1.404   1_655  A
C729        C730   1.397       .  A
C729       C4376   1.404       .  A
C729        H733   1.083   1_565  S
C730        O734   1.372   1_565  S
O732        H736   0.991   1_655  S
O734        H735   0.991       .  S
C737        C738   1.407       .  A
C737        C742   1.414       .  A
C738        C739   1.406       .  A
C738        H743   1.083       .  S
C739        C740   1.414       .  A
C739        O744   1.370       .  S
C740        C741   1.404       .  A
C741        C742   1.398       .  A
C741        H745   1.083       .  S
C742        O746   1.372       .  S
O744        H748   0.992       .  S
O746        H747   0.992       .  S
C749        C750   1.405       .  A
C749        C754   1.412       .  A
C750        C751   1.400       .  A
C750        H755   1.084       .  S
C751        C752   1.411       .  A
C751        O756   1.370       .  S
C752        C753   1.404       .  A
C753        C754   1.398       .  A
C753        H757   1.083       .  S
C754        O758   1.372       .  S
O756        H760   0.992       .  S
O758        H759   0.992       .  S
C761        C762   1.406       .  A
C761        C766   1.410       .  A
C762        C763   1.401       .  A
C762        H767   1.083       .  S
C763        C764   1.412       .  A
C763        O768   1.371       .  S
C764        C765   1.405       .  A
C765        C766   1.397       .  A
C765        H769   1.083       .  S
C766        O770   1.370       .  S
O768        H772   0.992       .  S
O770        H771   0.992       .  S
C773        C774   1.407       .  A
C773       C1994   1.413       .  A
C774        C775   1.406       .  A
C774        H779   1.083       .  S
C775        C776   1.414       .  A
C775        O780   1.372       .  S
C776       C1993   1.405       .  A
C777        C778   1.399       .  A
C777       C1992   1.405       .  A
C777        H781   1.083       .  S
C778       C1989   1.413       .  A
C778        O782   1.372       .  S
O780        H784   0.992       .  S
O782        H783   0.992       .  S
C785        C790   1.414       .  A
C785       C3218   1.407       .  A
C786        C787   1.405       .  A
C786       C3217   1.407       .  A
C786        H791   1.083       .  S
C787       C3220   1.412       .  A
C787        O792   1.370       .  S
C788        C789   1.404       .  A
C788       C3219   1.412       .  A
C789        C790   1.400       .  A
C789        H793   1.083   1_655  S
C790        O794   1.372   1_655  S
O792        H796   0.991       .  S
O794        H795   0.992       .  S
C797        C802   1.411       .  A
C797       C3230   1.406       .  A
C798        C799   1.402       .  A
C798       C3229   1.406       .  A
C798        H803   1.083   1_655  S
C799       C3232   1.412       .  A
C799        O804   1.371   1_655  S
C800        C801   1.405       .  A
C800       C3231   1.412       .  A
C801        C802   1.398       .  A
C801        H805   1.083       .  S
C802        O806   1.370       .  S
O804        H808   0.991       .  S
O806        H807   0.992       .  S
C809        C814   1.411       .  A
C809       C3242   1.403       .  A
C810        C811   1.398       .  A
C810       C3241   1.403       .  A
C810        H815   1.084   1_655  S
C811       C3244   1.411       .  A
C811        O816   1.372   1_655  S
C812        C813   1.405       .  A
C812       C3243   1.411       .  A
C813        C814   1.401       .  A
C813        H817   1.084       .  S
C814        O818   1.370       .  S
O816        H820   0.992       .  S
O818        H819   0.991       .  S
C821       C3254   1.407       .  A
C821       C2042   1.412       .  A
C822        C823   1.407       .  A
C822       C3253   1.407       .  A
C822        H827   1.083       .  S
C823       C3256   1.412       .  A
C823        O828   1.371       .  S
C824       C3255   1.412       .  A
C824       C2041   1.405       .  A
C825        C826   1.400       .  A
C825       C2040   1.405       .  A
C825        H829   1.084   1_655  S
C826       C2037   1.412   1_545  A
C826        O830   1.372   1_655  S
O828        H832   0.991       .  S
O830        H831   0.992       .  S
C833        C834   1.404       .  A
C833        C838   1.409       .  A
C834        C835   1.402       .  A
C834        H839   1.084       .  S
C835        C836   1.409       .  A
C835        O840   1.372       .  S
C836        C837   1.404       .  A
C837        C838   1.402       .  A
C837        H841   1.084       .  S
C838        O842   1.372       .  S
O840        H844   0.990       .  S
O842        H843   0.990       .  S
C845        C846   1.404       .  A
C845        C850   1.412       .  A
C846        C847   1.399       .  A
C846        H851   1.084       .  S
C847        C848   1.413       .  A
C847        O852   1.372       .  S
C848        C849   1.404       .  A
C849        C850   1.403       .  A
C849        H853   1.083       .  S
C850        O854   1.372       .  S
O852        H856   0.991       .  S
O854        H855   0.990       .  S
C857        C858   1.405       .  A
C857        C862   1.412       .  A
C858        C859   1.399       .  A
C858        H863   1.083       .  S
C859        C860   1.411       .  A
C859        O864   1.371       .  S
C860        C861   1.405       .  A
C861        C862   1.400       .  A
C861        H865   1.083       .  S
C862        O866   1.372       .  S
O864        H868   0.992       .  S
O866        H867   0.992       .  S
C869        C870   1.406       .  A
C869        C874   1.411       .  A
C870        C871   1.401       .  A
C870        H875   1.083       .  S
C871        C872   1.411       .  A
C871        O876   1.371       .  S
C872        C873   1.406       .  A
C873        C874   1.399       .  A
C873        H877   1.083       .  S
C874        O878   1.372       .  S
O876        H880   0.991       .  S
O878        H879   0.991       .  S
C881        C886   1.407   1_565  A
C881       C2098   1.404       .  A
C882        C883   1.404       .  A
C882       C2097   1.404       .  A
C882        H887   1.084       .  S
C883       C2100   1.410       .  A
C883        O888   1.372       .  S
C884        C885   1.407   1_565  A
C884       C2099   1.410       .  A
C885        C886   1.403       .  A
C885        H889   1.084       .  S
C886        O890   1.372       .  S
O888        H892   0.990       .  S
O890        H891   0.991       .  S
C893        C898   1.413       .  A
C893       C2110   1.404       .  A
C894        C895   1.398       .  A
C894       C2109   1.404       .  A
C894        H899   1.083       .  S
C895        C896   1.413   1_565  A
C895        O900   1.372       .  S
C896       C2113   1.407       .  A
C897        C898   1.405       .  A
C897       C2112   1.407       .  A
C897        H901   1.083       .  S
C898        O902   1.371       .  S
O900        H904   0.991   1_565  S
O902        H903   0.991       .  S
C905        C906   1.404   1_655  A
C905       C3342   1.410       .  A
C906        C907   1.403       .  A
C906        H911   1.084       .  S
C907        C908   1.409   1_455  A
C907        O912   1.372       .  S
C908       C3341   1.403       .  A
C909        C910   1.402       .  A
C909       C3340   1.403       .  A
C909        H913   1.084       .  S
C910       C3337   1.410       .  A
C910        O914   1.372       .  S
O912        H916   0.992       .  S
O914        H915   0.992       .  S
C917        C918   1.404       .  A
C917       C3354   1.414       .  A
C918        C919   1.399       .  A
C918        H923   1.083   1_655  S
C919        C920   1.414       .  A
C919        O924   1.372   1_655  S
C920       C3353   1.406       .  A
C921        C922   1.405       .  A
C921       C3352   1.406       .  A
C921        H925   1.083       .  S
C922       C3349   1.414       .  A
C922        O926   1.371       .  S
O924        H928   0.992       .  S
O926        H927   0.991       .  S
C929        C934   1.412       .  A
C929       C3362   1.405       .  A
C930        C931   1.399       .  A
C930       C3361   1.405   1_455  A
C930        H935   1.083       .  S
C931       C3364   1.411   1_455  A
C931        O936   1.372       .  S
C932        C933   1.405       .  A
C932       C3363   1.411       .  A
C933        C934   1.398       .  A
C933        H937   1.083       .  S
C934        O938   1.372       .  S
O936        H940   0.992       .  S
O938        H939   0.992       .  S
C941        C942   1.406       .  A
C941       C3378   1.411       .  A
C942        C943   1.401       .  A
C942        H947   1.083       .  S
C943        C944   1.411       .  A
C943        O948   1.371       .  S
C944       C3377   1.406       .  A
C945        C946   1.399       .  A
C945       C3376   1.406   1_455  A
C945        H949   1.083       .  S
C946       C3373   1.411   1_455  A
C946        O950   1.372       .  S
O948        H952   0.992       .  S
O950        H951   0.992       .  S
C953       C3386   1.402       .  A
C953       C2174   1.410   1_655  A
C954        C955   1.400       .  A
C954       C3385   1.402       .  A
C954        H959   1.084       .  S
C955       C3388   1.408       .  A
C955        O960   1.372       .  S
C956       C3387   1.408       .  A
C956       C2173   1.405   1_655  A
C957        C958   1.405       .  A
C957       C2172   1.405   1_445  A
C957        H961   1.084       .  S
C958       C2169   1.410   1_445  A
C958        O962   1.372       .  S
O960        H964   0.990       .  S
O962        H963   0.990       .  S
C965       C2182   1.406       .  A
C965       C3402   1.413       .  A
C966        C967   1.401   1_655  A
C966       C2181   1.406       .  A
C966        H971   1.083   1_655  S
C967       C2184   1.412   1_465  A
C967        O972   1.372       .  S
C968       C2183   1.412   1_655  A
C968       C3401   1.408       .  A
C969        C970   1.406       .  A
C969       C3400   1.408       .  A
C969        H973   1.083       .  S
C970       C3397   1.413       .  A
C970        O974   1.371       .  S
O972        H976   0.990   1_565  S
O974        H975   0.993       .  S
C977        C978   1.404       .  A
C977        C982   1.414       .  A
C978        C979   1.398       .  A
C978        H983   1.083       .  S
C979        C980   1.413       .  A
C979        O984   1.372       .  S
C980        C981   1.408       .  A
C981        C982   1.407       .  A
C981        H985   1.083       .  S
C982        O986   1.371       .  S
O984        H988   0.992       .  S
O986        H987   0.991       .  S
C989        C994   1.411       .  A
C989       C2206   1.407       .  A
C990        C991   1.405       .  A
C990       C2205   1.407       .  A
C990        H995   1.083       .  S
C991       C2208   1.412       .  A
C991        O996   1.371       .  S
C992        C993   1.405       .  A
C992       C2207   1.412       .  A
C993        C994   1.398       .  A
C993        H997   1.083   1_565  S
C994        O998   1.372   1_565  S
O996       H1000   0.990       .  S
O998        H999   0.992       .  S
C1001      C1002   1.405       .  A
C1001      C1006   1.412       .  A
C1002      C1003   1.400       .  A
C1002      H1007   1.084       .  S
C1003      C1004   1.413       .  A
C1003      O1008   1.372       .  S
C1004      C1005   1.403       .  A
C1005      C1006   1.396       .  A
C1005      H1009   1.083       .  S
C1006      O1010   1.372       .  S
O1008      H1012   0.991       .  S
O1010      H1011   0.992       .  S
C1013      C1014   1.405       .  A
C1013      C1018   1.413       .  A
C1014      C1015   1.402       .  A
C1014      H1019   1.083       .  S
C1015      C1016   1.413       .  A
C1015      O1020   1.372       .  S
C1016      C1017   1.404       .  A
C1017      C1018   1.398       .  A
C1017      H1021   1.083       .  S
C1018      O1022   1.372       .  S
O1020      H1024   0.991       .  S
O1022      H1023   0.991       .  S
C1025      C1026   1.404       .  A
C1025      C3462   1.413       .  A
C1026      C1027   1.398       .  A
C1026      H1031   1.083       .  S
C1027      C1028   1.414       .  A
C1027      O1032   1.372       .  S
C1028      C3461   1.406       .  A
C1029      C1030   1.404       .  A
C1029      C3460   1.406       .  A
C1029      H1033   1.083       .  S
C1030      C3457   1.413       .  A
C1030      O1034   1.370       .  S
O1032      H1036   0.992   1_455  S
O1034      H1035   0.992       .  S
C1037      C1042   1.411       .  A
C1037      C2254   1.406       .  A
C1038      C1039   1.398       .  A
C1038      C2253   1.406   1_545  A
C1038      H1043   1.083       .  S
C1039      C1040   1.411   1_545  A
C1039      O1044   1.371       .  S
C1040      C2257   1.407       .  A
C1041      C1042   1.399       .  A
C1041      C2256   1.407       .  A
C1041      H1045   1.083       .  S
C1042      O1046   1.372       .  S
O1044      H1048   0.992       .  S
O1046      H1047   0.992       .  S
C1049      C1054   1.410   1_565  A
C1049      C2266   1.407       .  A
C1050      C1051   1.400       .  A
C1050      C2265   1.407       .  A
C1050      H1055   1.083       .  S
C1051      C1052   1.410       .  A
C1051      O1056   1.372       .  S
C1052      C2269   1.407       .  A
C1053      C1054   1.399       .  A
C1053      C2268   1.407   1_545  A
C1053      H1057   1.083       .  S
C1054      O1058   1.371       .  S
O1056      H1060   0.991       .  S
O1058      H1059   0.992       .  S
C1061      C1066   1.411   1_455  A
C1061      C4710   1.406       .  A
C1062      C1063   1.400       .  A
C1062      C4709   1.406       .  A
C1062      H1067   1.083   1_565  S
C1063      C4712   1.413       .  A
C1063      O1068   1.372   1_565  S
C1064      C1065   1.406   1_455  A
C1064      C4711   1.413       .  A
C1065      C1066   1.403       .  A
C1065      H1069   1.083       .  S
C1066      O1070   1.370       .  S
O1068      H1072   0.992       .  S
O1070      H1071   0.992       .  S
C1073      C1074   1.406       .  A
C1073      C1078   1.411       .  A
C1074      C1075   1.402       .  A
C1074      H1079   1.084       .  S
C1075      C1076   1.406       .  A
C1075      O1080   1.372       .  S
C1076      C1077   1.404       .  A
C1077      C1078   1.403       .  A
C1077      H1081   1.084       .  S
C1078      O1082   1.372       .  S
O1080      H1084   0.992       .  S
O1082      H1083   0.992       .  S
C1085      C1086   1.406       .  A
C1085      C1090   1.414       .  A
C1086      C1087   1.403       .  A
C1086      H1091   1.083       .  S
C1087      C1088   1.413       .  A
C1087      O1092   1.371       .  S
C1088      C1089   1.407       .  A
C1089      C1090   1.403       .  A
C1089      H1093   1.083       .  S
C1090      O1094   1.372       .  S
O1092      H1096   0.991       .  S
O1094      H1095   0.992       .  S
C1097      C1098   1.405       .  A
C1097      C1102   1.412       .  A
C1098      C1099   1.399       .  A
C1098      H1103   1.083       .  S
C1099      C1100   1.412       .  A
C1099      O1104   1.372       .  S
C1100      C1101   1.405       .  A
C1101      C1102   1.398       .  A
C1101      H1105   1.083       .  S
C1102      O1106   1.372       .  S
O1104      H1108   0.992       .  S
O1106      H1107   0.992       .  S
C1109      C1110   1.405       .  A
C1109      C1114   1.412       .  A
C1110      C1111   1.399       .  A
C1110      H1115   1.083       .  S
C1111      C1112   1.411       .  A
C1111      O1116   1.371       .  S
C1112      C1113   1.406       .  A
C1113      C1114   1.401       .  A
C1113      H1117   1.083       .  S
C1114      O1118   1.372       .  S
O1116      H1120   0.991       .  S
O1118      H1119   0.992       .  S
C1121      C1256   1.483       .  S
C1121      C1122   1.406   1_565  A
C1121      C2342   1.411       .  A
C1122      C1123   1.402   1_545  A
C1122      H1127   1.084       .  S
C1123      C1124   1.407       .  A
C1123      O1128   1.372   1_565  S
C1124      C2341   1.402       .  A
C1125      C1126   1.402       .  A
C1125      C2340   1.402       .  A
C1125      H1129   1.084       .  S
C1126      C2337   1.411       .  A
C1126      O1130   1.371       .  S
O1128      H1132   0.992   1_545  S
O1130      H1131   0.992       .  S
C1133      C1138   1.413       .  A
C1133      C2350   1.406       .  A
C1134      C1135   1.400       .  A
C1134      C2349   1.406       .  A
C1134      H1139   1.083       .  S
C1135      C2352   1.413       .  A
C1135      O1140   1.372       .  S
C1136      C1137   1.407       .  A
C1136      C2351   1.413       .  A
C1137      C1138   1.405       .  A
C1137      H1141   1.083       .  S
C1138      O1142   1.371       .  S
O1140      H1144   0.992       .  S
O1142      H1143   0.991       .  S
C1145      C1146   1.406   1_655  A
C1145      C3582   1.406       .  A
C1146      C1147   1.403       .  A
C1146      H1151   1.084       .  S
C1147      C1148   1.407   1_455  A
C1147      O1152   1.372       .  S
C1148      C3581   1.405       .  A
C1149      C1150   1.399       .  A
C1149      C3580   1.405       .  A
C1149      H1153   1.084       .  S
C1150      C3577   1.406       .  A
C1150      O1154   1.372       .  S
O1152      H1156   0.990       .  S
O1154      H1155   0.990       .  S
C1157      C1162   1.413       .  A
C1157      C3590   1.408       .  A
C1158      C1159   1.407       .  A
C1158      C3589   1.408       .  A
C1158      H1163   1.083       .  S
C1159      C3592   1.414       .  A
C1159      O1164   1.371       .  S
C1160      C1161   1.404       .  A
C1160      C3591   1.414       .  A
C1161      C1162   1.398       .  A
C1161      H1165   1.083   1_655  S
C1162      O1166   1.372   1_655  S
O1164      H1168   0.991       .  S
O1166      H1167   0.992       .  S
C1169      C1170   1.404       .  A
C1169      C3606   1.412       .  A
C1170      C1171   1.400       .  A
C1170      H1175   1.083       .  S
C1171      C3604   1.411       .  A
C1171      O1176   1.372       .  S
C1172      C1173   1.404       .  A
C1172      C3603   1.411   1_655  A
C1173      C1174   1.400       .  A
C1173      H1177   1.084       .  S
C1174      C3601   1.412       .  A
C1174      O1178   1.372       .  S
O1176      H1180   0.991       .  S
O1178      H1179   0.992       .  S
C1181      C1186   1.413   1_655  A
C1181      C3614   1.405       .  A
C1182      C1183   1.399       .  A
C1182      C3613   1.405       .  A
C1182      H1187   1.083       .  S
C1183      C1184   1.413       .  A
C1183      O1188   1.372       .  S
C1184      C3617   1.406       .  A
C1185      C1186   1.403       .  A
C1185      C3616   1.406   1_455  A
C1185      H1189   1.083       .  S
C1186      O1190   1.371       .  S
O1188      H1192   0.992       .  S
O1190      H1191   0.992       .  S
C1193      C1198   1.409   1_565  A
C1193      C4842   1.406       .  A
C1194      C1195   1.402       .  A
C1194      C4841   1.406   1_455  A
C1194      H1199   1.084       .  S
C1195      C1196   1.406   1_455  A
C1195      O1200   1.372       .  S
C1196      C4845   1.403       .  A
C1197      C1198   1.400       .  A
C1197      C4844   1.403   1_545  A
C1197      H1201   1.084       .  S
C1198      O1202   1.372       .  S
O1200      H1204   0.992       .  S
O1202      H1203   0.992       .  S
C1205      C1206   1.407       .  A
C1205      C4858   1.413       .  A
C1206      C1207   1.405       .  A
C1206      H1211   1.083       .  S
C1207      C4856   1.413       .  A
C1207      O1212   1.371       .  S
C1208      C1209   1.407       .  A
C1208      C4855   1.413       .  A
C1209      C1210   1.400   1_655  A
C1209      H1213   1.083   1_655  S
C1210      C4853   1.413   1_455  A
C1210      O1214   1.372       .  S
O1212      H1216   0.991       .  S
O1214      H1215   0.992       .  S
O1217      C2443   1.264   1_455  A
O1218      V1225   1.900       .  S
O1218      C3660   1.265   1_455  A
O1219      V1225   1.904       .  S
O1219      C1229   1.265   1_455  A
O1220      C1230   1.264   1_455  A
O1221      C3662   1.265       .  A
O1222      V1226   1.899       .  S
O1222      C3661   1.266       .  A
O1224      V1226   1.903       .  S
O1224      C1227   1.265       .  A
V1225      V3658   2.084   1_455  T
V1226      V3657   2.084       .  T
C1227      O2433   1.264       .  A
C1227      C2409   1.478       .  S
C1228      O3650   1.265       .  A
C1228      C2421   1.491       .  S
C1229      O3654   1.266       .  A
C1229      C2397   1.488       .  S
C1230      O3653   1.265       .  A
C1230      C2388   1.482       .  S
O1231      V1239   1.905       .  S
O1231      C3673   1.266       .  A
O1232      V1239   1.912       .  S
O1232      C3674   1.268       .  A
O1233      V1239   1.894       .  S
O1233      C1243   1.263       .  A
O1234      V1239   1.896       .  S
O1234      C1244   1.264       .  A
O1235      V1240   1.903       .  S
O1235      C3676   1.266   1_455  A
O1236      V1240   1.909       .  S
O1236      C3675   1.268   1_455  A
O1237      V1240   1.895       .  S
O1237      C1242   1.264   1_455  A
O1238      V1240   1.897       .  S
O1238      C1241   1.263   1_455  A
V1239      V3672   2.083       .  T
V1240      V3671   2.083   1_455  T
C1241      O3663   1.266       .  A
C1241      C2361   1.476       .  S
C1242      O3664   1.268       .  A
C1242      C2373   1.491       .  S
C1243      O3668   1.268       .  A
C1243      C2400   1.489       .  S
C1244      O3667   1.266       .  A
C1244      C2385   1.482       .  S
O1246      V1253   1.906   1_565  S
O1246      C1256   1.266       .  A
O1247      V1253   1.895   1_565  S
O1247      C1257   1.264       .  A
O1248      C1258   1.265       .  A
O1249      C1258   1.265       .  A
O1250      V1254   1.899   1_565  S
O1250      C1257   1.265       .  A
O1252      V1254   1.898       .  S
O1252      C1255   1.265       .  A
V1253      V1254   2.084       .  T
C1255      C2352   1.491       .  S
C1257      C2313   1.483       .  S
C1258      C2325   1.486       .  S
O1259      V1267   1.900       .  S
O1259      C1269   1.264       .  A
O1260      V1267   1.901       .  S
O1260      C1270   1.265       .  A
O1261      V1267   1.901       .  S
O1261      C1271   1.265       .  A
O1262      V1267   1.898       .  S
O1262      C1272   1.264       .  A
O1263      V1268   1.897       .  S
O1263      C1272   1.265       .  A
O1264      V1268   1.897       .  S
O1264      C1271   1.264       .  A
O1265      V1268   1.907       .  S
O1265      C1270   1.267       .  A
O1266      V1268   1.908       .  S
O1266      C1269   1.266       .  A
V1267      V1268   2.084       .  T
C1269      C2289   1.483       .  S
C1270      C2301   1.492       .  S
C1271      C2328   1.486       .  S
C1272      C2316   1.483       .  S
O1273      V3713   1.896       .  S
O1273      C2499   1.263       .  A
O1274      V1281   1.897       .  S
O1275      V1281   1.905       .  S
O1275      C1285   1.267       .  A
O1276      V3713   1.901       .  S
O1276      C1286   1.265       .  A
O1277      V3714   1.894       .  S
O1278      V1282   1.892       .  S
O1279      V3714   1.906       .  S
O1279      C3716   1.267       .  A
O1280      V1282   1.904       .  S
O1280      C1283   1.265   1_455  A
V1281      O3705   1.896   1_455  S
V1281      O3708   1.901   1_455  S
V1282      O3709   1.894   1_455  S
V1282      O3711   1.906       .  S
C1283      O2489   1.263   1_565  A
C1283      C2412   1.473       .  S
C1284      O3711   1.267       .  A
C1284      C2280   1.489       .  S
C1285      C2265   1.485       .  S
C1286      C2256   1.483       .  S
O1287      V3727   1.910       .  S
O1287      C3729   1.267       .  A
O1288      V1295   1.912       .  S
O1288      C1298   1.268       .  A
O1289      V1295   1.891       .  S
O1289      C1299   1.263       .  A
O1290      V3727   1.894       .  S
O1290      C1300   1.263       .  A
O1291      V3728   1.900       .  S
O1291      C1300   1.266       .  A
O1292      V1296   1.906       .  S
O1292      C1299   1.267       .  A
O1293      V3728   1.890       .  S
O1293      C3730   1.262       .  A
O1294      V1296   1.891   1_655  S
O1294      C1297   1.262   1_655  A
V1295      O3719   1.910       .  S
V1295      O3722   1.894   1_455  S
V1295      V1296   2.084       .  T
V1296      O3723   1.900   1_455  S
V1296      O3725   1.890       .  S
C1297      O3719   1.267       .  A
C1297      C2364   1.476   1_455  S
C1298      O3725   1.262       .  A
C1298      C2244   1.489       .  S
C1299      C2229   1.486       .  S
C1300      C2220   1.482       .  S
O1301      V1309   1.910       .  S
O1302      V1309   1.906       .  S
O1303      V1309   1.900       .  S
O1303      C1313   1.265       .  A
O1304      V1309   1.904       .  S
O1304      C1314   1.266       .  A
O1305      V1310   1.893       .  S
O1306      V1310   1.894       .  S
O1307      V1310   1.897       .  S
O1307      C1312   1.263       .  A
O1308      V1310   1.896       .  S
O1308      C1311   1.265       .  A
C1311      C2208   1.488       .  S
C1312      C2340   1.473       .  S
C1313      C2253   1.482       .  S
C1314      C2268   1.485       .  S
O1315      V1323   1.898       .  S
O1315      C1325   1.266       .  A
O1316      V1323   1.900       .  S
O1316      C1326   1.264       .  A
O1317      V1323   1.890       .  S
O1317      C1327   1.263       .  A
O1318      V1323   1.899       .  S
O1318      C1328   1.264       .  A
O1319      V1324   1.900       .  S
O1319      C1328   1.266       .  A
O1320      V1324   1.902       .  S
O1320      C1327   1.266       .  A
O1321      V1324   1.906       .  S
O1321      C1326   1.266       .  A
O1322      V1324   1.909       .  S
O1322      C1325   1.266       .  A
V1323      V1324   2.084       .  T
C1325      C2193   1.491       .  S
C1326      C2292   1.476       .  S
C1327      C2217   1.482       .  S
C1328      C2232   1.486       .  S
O1329      C2555   1.266       .  A
O1330      V1337   1.901       .  S
O1330      C3772   1.265       .  A
O1331      V1337   1.896   1_565  S
O1331      C1341   1.265       .  A
O1332      C1342   1.265       .  A
O1333      C3774   1.264   1_455  A
O1334      V1338   1.899   1_565  S
O1334      C3773   1.265   1_455  A
O1336      V1338   1.903       .  S
O1336      C1339   1.266   1_455  A
V1337      V3770   2.084       .  T
V1338      V3769   2.084   1_455  T
C1339      O2545   1.266       .  A
C1339      C2184   1.493       .  S
C1340      O3762   1.265       .  A
C1340      C2172   1.479   1_545  S
C1341      O3766   1.265       .  A
C1341      C2148   1.483       .  S
C1342      O3765   1.264       .  A
C1342      C2157   1.484       .  S
O1343      V1351   1.904       .  S
O1343      C3785   1.265       .  A
O1344      V1351   1.901       .  S
O1344      C3786   1.265       .  A
O1345      V1351   1.902       .  S
O1345      C1355   1.265       .  A
O1346      V1351   1.897       .  S
O1346      C1356   1.264       .  A
O1347      V1352   1.898       .  S
O1347      C3788   1.265   1_455  A
O1348      V1352   1.896       .  S
O1348      C3787   1.264   1_455  A
O1349      V1352   1.906       .  S
O1349      C1354   1.265   1_455  A
O1350      V1352   1.903       .  S
O1350      C1353   1.267   1_455  A
V1351      V3784   2.084       .  T
V1352      V3783   2.084   1_455  T
C1353      O3775   1.265       .  A
C1353      C2133   1.490       .  S
C1354      O3776   1.265       .  A
C1354      C2121   1.480       .  S
C1355      O3780   1.264       .  A
C1355      C2160   1.485       .  S
C1356      O3779   1.265       .  A
C1356      C2145   1.483       .  S
O1358      V1365   1.911       .  S
O1358      C1368   1.267       .  A
O1359      V1365   1.896       .  S
O1359      C1369   1.264       .  A
O1360      C1370   1.264       .  A
O1361      C1370   1.265       .  A
O1362      V1366   1.905       .  S
O1362      C1369   1.266       .  A
O1364      V1366   1.895       .  S
O1364      C1367   1.264       .  A
V1365      V1366   2.083       .  T
C1367      C2112   1.489       .  S
C1368      C2097   1.480       .  S
C1369      C2088   1.486       .  S
C1370      C2073   1.484       .  S
O1371      V1379   1.902       .  S
O1371      C1381   1.265       .  A
O1372      V1379   1.901       .  S
O1372      C1382   1.266       .  A
O1373      V1379   1.900       .  S
O1373      C1383   1.265       .  A
O1374      V1379   1.900       .  S
O1374      C1384   1.265       .  A
O1375      V1380   1.900       .  S
O1375      C1384   1.265       .  A
O1376      V1380   1.898       .  S
O1376      C1383   1.265       .  A
O1377      V1380   1.900       .  S
O1377      C1382   1.264       .  A
O1378      V1380   1.902       .  S
O1378      C1381   1.265       .  A
V1379      V1380   2.085       .  T
C1381      C2049   1.478       .  S
C1382      C2061   1.484       .  S
C1383      C2076   1.484       .  S
C1384      C2085   1.485       .  S
O1385      C2611   1.267       .  A
O1386      V1393   1.911       .  S
O1386      C3828   1.267       .  A
O1387      V1393   1.898       .  S
O1387      C1397   1.265       .  A
O1388      C1398   1.264       .  A
O1389      C3830   1.265       .  A
O1390      V1394   1.901       .  S
O1390      C3829   1.265       .  A
O1392      V1394   1.899       .  S
O1392      C1395   1.265       .  A
V1393      V3826   2.084       .  T
V1394      V3825   2.084       .  T
C1395      O2601   1.267       .  A
C1395      C2037   1.491       .  S
C1396      O3818   1.267       .  A
C1396      C2181   1.493       .  S
C1397      O3822   1.265       .  A
C1397      C2016   1.486       .  S
C1398      O3821   1.265       .  A
C1398      C2025   1.480       .  S
O1399      V1407   1.913       .  S
O1399      C3841   1.268       .  A
O1400      V1407   1.913       .  S
O1400      C3842   1.268       .  A
O1401      V1407   1.902       .  S
O1401      C1411   1.265       .  A
O1402      V1407   1.897       .  S
O1402      C1412   1.265       .  A
O1403      V1408   1.900       .  S
O1403      C3844   1.265       .  A
O1404      V1408   1.897       .  S
O1404      C3843   1.264       .  A
O1405      V1408   1.893       .  S
O1405      C1410   1.263       .  A
O1406      V1408   1.894       .  S
O1406      C1409   1.263       .  A
V1407      V3840   2.084       .  T
V1408      V3839   2.084       .  T
C1409      O3831   1.268       .  A
C1409      C2001   1.491       .  S
C1410      O3832   1.268       .  A
C1410      C2136   1.490       .  S
C1411      O3836   1.264       .  A
C1411      C2028   1.481       .  S
C1412      O3835   1.265       .  A
C1412      C2013   1.485       .  S
O1414      V1421   1.907       .  S
O1414      C1424   1.266       .  A
O1415      V1421   1.900       .  S
O1415      C1425   1.265       .  A
O1416      C1426   1.265       .  A
O1417      C1426   1.264       .  A
O1418      V1422   1.895       .  S
O1418      C1425   1.263       .  A
O1420      V1422   1.898       .  S
O1420      C1423   1.266       .  A
V1421      V1422   2.084       .  T
C1423      C2109   1.488       .  S
C1424      C1992   1.491       .  S
C1425      C1965   1.484       .  S
C1426      C1977   1.484       .  S
O1427      V1435   1.891       .  S
O1427      C1437   1.263       .  A
O1428      V1435   1.890       .  S
O1428      C1438   1.262       .  A
O1429      V1435   1.900       .  S
O1429      C1439   1.265       .  A
O1430      V1435   1.898       .  S
O1430      C1440   1.265       .  A
O1431      V1436   1.897       .  S
O1431      C1440   1.264       .  A
O1432      V1436   1.895       .  S
O1432      C1439   1.264       .  A
O1433      V1436   1.911       .  S
O1433      C1438   1.268       .  A
O1434      V1436   1.914       .  S
O1434      C1437   1.268       .  A
V1435      V1436   2.084       .  T
C1437      C1953   1.491       .  S
C1438      C2064   1.484       .  S
C1439      C1980   1.484       .  S
C1440      C1968   1.484       .  S
O1441      V3881   1.910       .  S
O1441      C2667   1.267   1_655  A
O1442      V1449   1.909       .  S
O1443      V1449   1.905       .  S
O1443      C1453   1.266       .  A
O1444      V3881   1.905   1_455  S
O1444      C1454   1.266       .  A
O1445      V3882   1.891   1_455  S
O1446      V1450   1.894       .  S
O1447      V3882   1.892       .  S
O1447      C3884   1.263       .  A
O1448      V1450   1.892       .  S
O1448      C1451   1.263       .  A
V1449      O3873   1.910       .  S
V1449      O3876   1.905       .  S
V1450      O3877   1.891       .  S
V1450      O3879   1.892       .  S
C1451      O2657   1.267       .  A
C1451      C1929   1.489       .  S
C1452      O3879   1.263       .  A
C1452      C1941   1.487       .  S
C1453      C1908   1.484       .  S
C1454      C1917   1.483       .  S
O1455      V3895   1.910       .  S
O1455      C3897   1.267       .  A
O1456      V1463   1.906       .  S
O1456      C1466   1.266       .  A
O1457      V1463   1.897       .  S
O1457      C1467   1.264       .  A
O1458      V3895   1.900       .  S
O1458      C1468   1.264       .  A
O1459      V3896   1.898       .  S
O1459      C1468   1.265       .  A
O1460      V1464   1.902       .  S
O1460      C1467   1.265       .  A
O1461      V3896   1.895       .  S
O1461      C3898   1.264       .  A
O1462      V1464   1.894   1_655  S
O1462      C1465   1.264       .  A
V1463      O3887   1.910   1_455  S
V1463      O3890   1.900   1_455  S
V1463      V1464   2.085       .  T
V1464      O3891   1.898   1_455  S
V1464      O3893   1.895       .  S
C1465      O3887   1.267       .  A
C1465      C1881   1.489       .  S
C1466      O3893   1.264       .  A
C1466      C1893   1.487       .  S
C1467      C1869   1.484       .  S
C1468      C1857   1.483       .  S
O1469      V1477   1.907       .  S
O1470      V1477   1.907       .  S
O1471      V1477   1.894       .  S
O1471      C1481   1.264       .  A
O1472      V1477   1.894       .  S
O1472      C1482   1.263       .  A
O1473      V1478   1.901       .  S
O1474      V1478   1.905       .  S
O1475      V1478   1.895       .  S
O1475      C1480   1.263       .  A
O1476      V1478   1.894       .  S
O1476      C1479   1.263       .  A
C1479      C1845   1.488       .  S
C1480      C1836   1.486       .  S
C1481      C1905   1.484       .  S
C1482      C1920   1.482       .  S
O1483      V1491   1.902       .  S
O1483      C1493   1.266       .  A
O1484      V1491   1.900       .  S
O1484      C1494   1.265       .  A
O1485      V1491   1.895       .  S
O1485      C1495   1.264       .  A
O1486      V1491   1.899       .  S
O1486      C1496   1.264       .  A
O1487      V1492   1.899       .  S
O1487      C1496   1.266       .  A
O1488      V1492   1.905       .  S
O1488      C1495   1.266       .  A
O1489      V1492   1.904       .  S
O1489      C1494   1.265       .  A
O1490      V1492   1.901       .  S
O1490      C1493   1.265       .  A
V1491      V1492   2.084       .  T
C1493      C1821   1.485       .  S
C1494      C1809   1.484       .  S
C1495      C1860   1.484       .  S
C1496      C1872   1.484       .  S
O1497      V3937   1.898       .  S
O1497      C2723   1.265       .  A
O1498      V1505   1.904       .  S
O1499      V1505   1.900   1_455  S
O1499      C1509   1.265       .  A
O1500      V3937   1.905       .  S
O1500      C1510   1.266       .  A
O1501      V3938   1.892       .  S
O1502      V1506   1.896   1_455  S
O1503      V3938   1.902       .  S
O1503      C3940   1.265       .  A
O1504      V1506   1.903       .  S
O1504      C1507   1.265       .  A
V1505      O3929   1.898       .  S
V1505      O3932   1.905       .  S
V1506      O3933   1.892       .  S
V1506      O3935   1.902       .  S
C1507      O2713   1.265   1_565  A
C1507      C1944   1.486       .  S
C1508      O3935   1.265       .  A
C1508      C2169   1.479       .  S
C1509      C1797   1.485       .  S
C1510      C1785   1.482       .  S
O1511      V3951   1.902       .  S
O1511      C3953   1.265       .  A
O1512      V1519   1.903       .  S
O1512      C1522   1.265       .  A
O1513      V1519   1.904   1_455  S
O1513      C1523   1.266       .  A
O1514      V3951   1.900       .  S
O1514      C1524   1.265       .  A
O1515      V3952   1.895       .  S
O1515      C1524   1.264       .  A
O1516      V1520   1.894   1_455  S
O1516      C1523   1.264       .  A
O1517      V3952   1.902       .  S
O1517      C3954   1.265       .  A
O1518      V1520   1.901       .  S
O1518      C1521   1.265   1_655  A
V1519      O3943   1.902   1_655  S
V1519      O3946   1.900       .  S
V1519      V1520   2.084       .  T
V1520      O3947   1.895       .  S
V1520      O3949   1.902       .  S
C1521      O3943   1.265       .  A
C1521      C1896   1.488       .  S
C1522      O3949   1.265       .  A
C1522      C2124   1.477       .  S
C1523      C1773   1.486       .  S
C1524      C1761   1.484       .  S
O1525      V1533   1.907       .  S
O1526      V1533   1.906       .  S
O1527      V1533   1.901       .  S
O1527      C1537   1.266       .  A
O1528      V1533   1.900       .  S
O1528      C1538   1.265       .  A
O1529      V1534   1.898       .  S
O1530      V1534   1.895       .  S
O1531      V1534   1.898       .  S
O1531      C1536   1.265       .  A
O1532      V1534   1.904       .  S
O1532      C1535   1.265       .  A
C1535      C2100   1.485       .  S
C1536      C1848   1.489       .  S
C1537      C1788   1.482       .  S
C1538      C1800   1.485       .  S
O1539      V1547   1.902       .  S
O1539      C1549   1.264       .  A
O1540      V1547   1.900       .  S
O1540      C1550   1.265       .  A
O1541      V1547   1.902       .  S
O1541      C1551   1.267       .  A
O1542      V1547   1.900       .  S
O1542      C1552   1.265       .  A
O1543      V1548   1.898       .  S
O1543      C1552   1.265       .  A
O1544      V1548   1.892       .  S
O1544      C1551   1.263       .  A
O1545      V1548   1.903       .  S
O1545      C1550   1.266       .  A
O1546      V1548   1.904       .  S
O1546      C1549   1.265       .  A
V1547      V1548   2.085       .  T
C1549      C2052   1.477       .  S
C1550      C1824   1.484       .  S
C1551      C1764   1.483       .  S
C1552      C1776   1.485       .  S
O1553      V3993   1.895       .  S
O1553      C2779   1.264       .  A
O1554      V1561   1.892   1_455  S
O1555      V1561   1.898   1_455  S
O1555      C1565   1.265       .  A
O1556      V3993   1.901       .  S
O1556      C1566   1.266       .  A
O1557      V3994   1.897       .  S
O1558      V1562   1.896   1_455  S
O1559      V3994   1.911       .  S
O1559      C3996   1.267       .  A
O1560      V1562   1.909       .  S
O1560      C1563   1.267       .  A
V1561      O3985   1.895       .  S
V1561      O3988   1.901       .  S
V1562      O3989   1.897       .  S
V1562      O3991   1.911       .  S
C1563      O2769   1.264       .  A
C1563      C2277   1.488   1_655  S
C1564      O3991   1.267   1_455  A
C1564      C1932   1.489       .  S
C1565      C1752   1.482       .  S
C1566      C1737   1.485       .  S
O1567      V4007   1.906       .  S
O1567      C4009   1.266       .  A
O1568      V1575   1.905       .  S
O1568      C1578   1.266       .  A
O1569      V1575   1.898       .  S
O1569      C1579   1.265       .  A
O1570      V4007   1.896       .  S
O1570      C1580   1.265       .  A
O1571      V4008   1.898       .  S
O1571      C1580   1.264       .  A
O1572      V1576   1.898       .  S
O1572      C1579   1.264       .  A
O1573      V4008   1.896       .  S
O1573      C4010   1.264       .  A
O1574      V1576   1.898       .  S
O1574      C1577   1.265       .  A
V1575      O3999   1.906       .  S
V1575      O4002   1.896   1_455  S
V1575      V1576   2.084       .  T
V1576      O4003   1.898   1_455  S
V1576      O4005   1.896       .  S
C1577      O3999   1.266       .  A
C1577      C2241   1.489       .  S
C1578      O4005   1.264       .  A
C1578      C1884   1.488       .  S
C1579      C1725   1.484       .  S
C1580      C1713   1.483       .  S
O1581      V1589   1.906       .  S
O1582      V1589   1.908       .  S
O1583      V1589   1.899       .  S
O1583      C1593   1.265       .  A
O1584      V1589   1.898       .  S
O1584      C1594   1.265       .  A
O1585      V1590   1.896       .  S
O1586      V1590   1.898       .  S
O1587      V1590   1.896       .  S
O1587      C1592   1.264       .  A
O1588      V1590   1.896       .  S
O1588      C1591   1.264       .  A
C1591      C1833   1.486       .  S
C1592      C2205   1.487       .  S
C1593      C1740   1.484       .  S
C1594      C1749   1.482       .  S
O1595      V1603   1.894       .  S
O1595      C1605   1.263       .  A
O1596      V1603   1.894       .  S
O1596      C1606   1.264       .  A
O1597      V1603   1.897       .  S
O1597      C1607   1.264       .  A
O1598      V1603   1.899       .  S
O1598      C1608   1.265       .  A
O1599      V1604   1.899       .  S
O1599      C1608   1.264       .  A
O1600      V1604   1.897       .  S
O1600      C1607   1.264       .  A
O1601      V1604   1.912       .  S
O1601      C1606   1.268       .  A
O1602      V1604   1.910       .  S
O1602      C1605   1.267       .  A
V1603      V1604   2.084       .  T
C1605      C1812   1.483       .  S
C1606      C2196   1.491       .  S
C1607      C1716   1.483       .  S
C1608      C1728   1.484       .  S
O1609      C2835   1.267       .  A
O1610      V1617   1.912       .  S
O1610      C4052   1.267       .  A
O1611      V1617   1.895   1_565  S
O1611      C1621   1.263       .  A
O1612      C1622   1.264       .  A
O1613      C4054   1.265       .  A
O1614      V1618   1.900   1_565  S
O1614      C4053   1.266       .  A
O1616      V1618   1.899       .  S
O1616      C1619   1.265       .  A
V1617      V4050   2.084       .  T
V1618      V4049   2.084       .  T
C1619      O2825   1.267       .  A
C1619      C2424   1.492       .  S
C1620      O4042   1.267       .  A
C1620      C2040   1.490       .  S
C1621      O4046   1.266       .  A
C1621      C1689   1.484       .  S
C1622      O4045   1.265       .  A
C1622      C1701   1.484       .  S
O1623      V1631   1.909       .  S
O1623      C4065   1.266       .  A
O1624      V1631   1.908       .  S
O1624      C4066   1.266       .  A
O1625      V1631   1.899       .  S
O1625      C1635   1.265       .  A
O1626      V1631   1.902       .  S
O1626      C1636   1.266       .  A
O1627      V1632   1.895       .  S
O1627      C4068   1.264       .  A
O1628      V1632   1.895       .  S
O1628      C4067   1.263       .  A
O1629      V1632   1.900       .  S
O1629      C1634   1.265       .  A
O1630      V1632   1.898       .  S
O1630      C1633   1.266       .  A
V1631      V4064   2.084       .  T
V1632      V4063   2.084       .  T
C1633      O4055   1.266       .  A
C1633      C2376   1.491       .  S
C1634      O4056   1.266       .  A
C1634      C2004   1.490       .  S
C1635      O4060   1.263       .  A
C1635      C1704   1.483       .  S
C1636      O4059   1.264       .  A
C1636      C1692   1.484       .  S
O1638      V1645   1.908       .  S
O1638      C1648   1.266       .  A
O1639      V1645   1.900       .  S
O1639      C1649   1.265       .  A
O1640      C1650   1.265       .  A
O1641      C1650   1.263       .  A
O1642      V1646   1.896       .  S
O1642      C1649   1.264       .  A
O1644      V1646   1.897       .  S
O1644      C1647   1.265       .  A
V1645      V1646   2.084       .  T
C1647      C1989   1.491       .  S
C1648      C2349   1.492   1_565  S
C1649      C1665   1.484       .  S
C1650      C1677   1.483       .  S
O1651      V1659   1.907       .  S
O1651      C1661   1.266       .  A
O1652      V1659   1.906       .  S
O1652      C1662   1.266       .  A
O1653      V1659   1.895       .  S
O1653      C1663   1.263       .  A
O1654      V1659   1.896       .  S
O1654      C1664   1.264       .  A
O1655      V1660   1.901       .  S
O1655      C1664   1.265       .  A
O1656      V1660   1.899       .  S
O1656      C1663   1.266       .  A
O1657      V1660   1.903       .  S
O1657      C1662   1.266       .  A
O1658      V1660   1.899       .  S
O1658      C1661   1.266       .  A
V1659      V1660   2.084       .  T
C1661      C1956   1.491       .  S
C1662      C2304   1.492       .  S
C1663      C1680   1.483       .  S
C1664      C1668   1.484       .  S
C1665      C1666   1.406       .  A
C1665      C1670   1.411       .  A
C1666      C1667   1.400       .  A
C1666      H1671   1.083       .  S
C1667      C1668   1.411       .  A
C1667      O1672   1.372       .  S
C1668      C1669   1.406       .  A
C1669      C1670   1.399       .  A
C1669      H1673   1.083       .  S
C1670      O1674   1.371       .  S
O1672      H1676   0.991       .  S
O1674      H1675   0.991       .  S
C1677      C1678   1.405       .  A
C1677      C1682   1.412       .  A
C1678      C1679   1.400       .  A
C1678      H1683   1.084       .  S
C1679      C1680   1.413       .  A
C1679      O1684   1.372       .  S
C1680      C1681   1.404       .  A
C1681      C1682   1.398       .  A
C1681      H1685   1.083       .  S
C1682      O1686   1.372       .  S
O1684      H1688   0.992       .  S
O1686      H1687   0.992       .  S
C1689      C4122   1.404       .  A
C1689      C1694   1.412       .  A
C1690      C4121   1.404       .  A
C1690      C1691   1.398       .  A
C1690      H1695   1.083   1_655  S
C1691      C4124   1.412       .  A
C1691      O1696   1.371   1_655  S
C1692      C4123   1.412       .  A
C1692      C1693   1.405       .  A
C1693      C1694   1.400       .  A
C1693      H1697   1.084       .  S
C1694      O1698   1.371       .  S
O1696      H1700   0.992       .  S
O1698      H1699   0.992       .  S
C1701      C4134   1.405       .  A
C1701      C1706   1.412       .  A
C1702      C4133   1.405       .  A
C1702      C1703   1.400       .  A
C1702      H1707   1.083   1_655  S
C1703      C4136   1.412       .  A
C1703      O1708   1.372   1_655  S
C1704      C4135   1.412       .  A
C1704      C1705   1.404       .  A
C1705      C1706   1.398       .  A
C1705      H1709   1.083       .  S
C1706      O1710   1.372       .  S
O1708      H1712   0.992       .  S
O1710      H1711   0.992       .  S
C1713      C1714   1.405       .  A
C1713      C1718   1.411       .  A
C1714      C1715   1.398       .  A
C1714      H1719   1.082       .  S
C1715      C1716   1.411       .  A
C1715      O1720   1.371       .  S
C1716      C1717   1.406       .  A
C1717      C1718   1.399       .  A
C1717      H1721   1.083       .  S
C1718      O1722   1.372       .  S
O1720      H1724   0.992       .  S
O1722      H1723   0.992       .  S
C1725      C1726   1.405       .  A
C1725      C1730   1.411       .  A
C1726      C1727   1.400       .  A
C1726      H1731   1.083       .  S
C1727      C1728   1.412       .  A
C1727      O1732   1.371       .  S
C1728      C1729   1.405       .  A
C1729      C1730   1.399       .  A
C1729      H1733   1.083       .  S
C1730      O1734   1.372       .  S
O1732      H1736   0.992       .  S
O1734      H1735   0.992       .  S
C1737      C1738   1.405       .  A
C1738      C1739   1.400       .  A
C1738      H1743   1.083       .  S
C1739      O1744   1.372       .  S
C1740      C1741   1.404       .  A
C1741      C1742   1.399       .  A
C1741      H1745   1.083       .  S
C1742      O1746   1.371       .  S
O1744      H1748   0.992       .  S
O1746      H1747   0.991       .  S
C1749      C1750   1.405       .  A
C1750      C1751   1.399       .  A
C1750      H1755   1.083       .  S
C1751      O1756   1.372       .  S
C1752      C1753   1.404       .  A
C1753      C1754   1.398       .  A
C1753      H1757   1.083       .  S
C1754      O1758   1.372       .  S
O1756      H1760   0.991       .  S
O1758      H1759   0.992       .  S
C1761      C1762   1.405       .  A
C1761      C1766   1.412       .  A
C1762      C1763   1.399       .  A
C1762      H1767   1.083       .  S
C1763      C1764   1.413       .  A
C1763      O1768   1.372       .  S
C1764      C1765   1.404       .  A
C1765      C1766   1.399       .  A
C1765      H1769   1.083       .  S
C1766      O1770   1.372       .  S
O1768      H1772   0.992       .  S
O1770      H1771   0.992       .  S
C1773      C1774   1.407       .  A
C1773      C1778   1.411       .  A
C1774      C1775   1.400       .  A
C1774      H1779   1.083       .  S
C1775      C1776   1.411       .  A
C1775      O1780   1.372       .  S
C1776      C1777   1.406       .  A
C1777      C1778   1.400       .  A
C1777      H1781   1.083       .  S
C1778      O1782   1.371       .  S
O1780      H1784   0.992       .  S
O1782      H1783   0.992       .  S
C1785      C1786   1.404       .  A
C1786      C1787   1.400       .  A
C1786      H1791   1.083       .  S
C1787      O1792   1.372       .  S
C1788      C1789   1.403       .  A
C1789      C1790   1.398       .  A
C1789      H1793   1.083       .  S
C1790      O1794   1.372       .  S
O1792      H1796   0.992       .  S
O1794      H1795   0.992       .  S
C1797      C1802   1.411       .  A
C1798      C1799   1.400       .  A
C1798      H1803   1.083       .  S
C1799      C1800   1.411       .  A
C1799      O1804   1.372       .  S
C1801      C1802   1.399       .  A
C1801      H1805   1.083       .  S
C1802      O1806   1.372       .  S
O1804      H1808   0.992       .  S
O1806      H1807   0.992       .  S
C1809      C1810   1.403       .  A
C1809      C1814   1.412       .  A
C1810      C1811   1.398   1_554  A
C1810      H1815   1.084       .  S
C1811      C1812   1.411       .  A
C1811      O1816   1.372       .  S
C1812      C1813   1.405       .  A
C1813      C1814   1.404   1_556  A
C1813      H1817   1.083       .  S
C1814      O1818   1.372       .  S
O1816      H1820   0.992       .  S
O1818      H1819   0.992       .  S
C1821      C1822   1.405       .  A
C1821      C1826   1.412       .  A
C1822      C1823   1.401       .  A
C1822      H1827   1.083       .  S
C1823      C1824   1.411       .  A
C1823      O1828   1.372       .  S
C1824      C1825   1.405       .  A
C1825      C1826   1.401       .  A
C1825      H1829   1.084       .  S
C1826      O1830   1.372       .  S
O1828      H1832   0.991       .  S
O1830      H1831   0.992       .  S
C1833      C1834   1.405       .  A
C1834      C1835   1.399   1_556  A
C1834      H1839   1.084       .  S
C1835      C1836   1.412       .  A
C1835      O1840   1.372       .  S
C1837      C1838   1.402   1_554  A
C1837      H1841   1.083       .  S
C1838      O1842   1.371       .  S
O1840      H1844   0.990       .  S
O1842      H1843   0.990       .  S
C1845      C1850   1.413       .  A
C1846      C1847   1.404       .  A
C1846      H1851   1.083       .  S
C1847      O1852   1.371       .  S
C1848      C1849   1.405       .  A
C1849      C1850   1.398       .  A
C1849      H1853   1.083       .  S
C1850      O1854   1.372       .  S
O1852      H1856   0.991       .  S
O1854      H1855   0.992       .  S
C1857      C1858   1.403       .  A
C1857      C1862   1.412       .  A
C1858      C1859   1.397       .  A
C1858      H1863   1.083       .  S
C1859      C1860   1.411       .  A
C1859      O1864   1.371       .  S
C1860      C1861   1.406       .  A
C1861      C1862   1.403       .  A
C1861      H1865   1.084       .  S
C1862      O1866   1.371       .  S
O1864      H1868   0.992       .  S
O1866      H1867   0.992       .  S
C1869      C1870   1.406       .  A
C1869      C1874   1.412       .  A
C1870      C1871   1.402       .  A
C1870      H1875   1.083       .  S
C1871      C1872   1.413       .  A
C1871      O1876   1.372       .  S
C1872      C1873   1.404       .  A
C1873      C1874   1.398       .  A
C1873      H1877   1.083       .  S
C1874      O1878   1.372       .  S
O1876      H1880   0.992       .  S
O1878      H1879   0.992       .  S
C1881      C4314   1.406       .  A
C1881      C1886   1.411   1_655  A
C1882      C4313   1.406       .  A
C1882      C1883   1.398   1_554  A
C1882      H1887   1.083       .  S
C1883      C4316   1.412       .  A
C1883      O1888   1.372       .  S
C1884      C4315   1.412   1_455  A
C1884      C1885   1.406       .  A
C1885      C1886   1.404   1_556  A
C1885      H1889   1.082       .  S
C1886      O1890   1.371       .  S
O1888      H1892   0.991       .  S
O1890      H1891   0.992       .  S
C1893      C1894   1.406   1_455  A
C1893      C4330   1.411       .  A
C1894      C1895   1.400       .  A
C1894      H1899   1.083       .  S
C1895      C1896   1.412   1_655  A
C1895      O1900   1.372       .  S
C1896      C4329   1.407       .  A
C1897      C4328   1.407       .  A
C1897      C1898   1.402       .  A
C1897      H1901   1.083       .  S
C1898      C4325   1.411       .  A
C1898      O1902   1.372       .  S
O1900      H1904   0.991   1_655  S
O1902      H1903   0.991       .  S
C1905      C1906   1.406       .  A
C1906      C1907   1.399       .  A
C1906      H1911   1.084       .  S
C1907      C1908   1.410       .  A
C1907      O1912   1.371       .  S
C1909      C1910   1.401       .  A
C1909      H1913   1.083       .  S
C1910      O1914   1.372       .  S
O1912      H1916   0.990       .  S
O1914      H1915   0.988       .  S
C1917      C1918   1.405       .  A
C1918      C1919   1.401       .  A
C1918      H1923   1.084       .  S
C1919      C1920   1.413       .  A
C1919      O1924   1.372       .  S
C1921      C1922   1.397       .  A
C1921      H1925   1.083       .  S
C1922      O1926   1.372       .  S
O1924      H1928   0.992       .  S
O1926      H1927   0.992       .  S
C1929      C3146   1.407       .  A
C1929      C1934   1.412       .  A
C1930      C3145   1.407       .  A
C1930      C1931   1.406   1_554  A
C1930      H1935   1.082       .  S
C1931      C1932   1.412       .  A
C1931      O1936   1.370       .  S
C1932      C3149   1.405       .  A
C1933      C3148   1.405       .  A
C1933      C1934   1.396   1_556  A
C1933      H1937   1.083       .  S
C1934      O1938   1.372       .  S
O1936      H1940   0.992   1_455  S
O1938      H1939   0.992       .  S
C1941      C3158   1.406       .  A
C1941      C1946   1.413       .  A
C1942      C3157   1.406       .  A
C1942      C1943   1.404       .  A
C1942      H1947   1.083       .  S
C1943      C1944   1.413       .  A
C1943      O1948   1.372       .  S
C1944      C3161   1.404   1_655  A
C1945      C3160   1.404       .  A
C1945      C1946   1.397       .  A
C1945      H1949   1.083       .  S
C1946      O1950   1.372       .  S
O1948      H1952   0.991   1_655  S
O1950      H1951   0.991       .  S
C1953      C1954   1.407       .  A
C1953      C1958   1.414       .  A
C1954      C1955   1.406       .  A
C1954      H1959   1.083       .  S
C1955      C1956   1.414       .  A
C1955      O1960   1.370       .  S
C1956      C1957   1.404       .  A
C1957      C1958   1.398       .  A
C1957      H1961   1.083       .  S
C1958      O1962   1.372       .  S
O1960      H1964   0.992       .  S
O1962      H1963   0.992       .  S
C1965      C1966   1.405       .  A
C1965      C1970   1.412       .  A
C1966      C1967   1.400       .  A
C1966      H1971   1.084       .  S
C1967      C1968   1.411       .  A
C1967      O1972   1.370       .  S
C1968      C1969   1.404       .  A
C1969      C1970   1.398       .  A
C1969      H1973   1.083       .  S
C1970      O1974   1.372       .  S
O1972      H1976   0.992       .  S
O1974      H1975   0.992       .  S
C1977      C1978   1.406       .  A
C1977      C1982   1.410       .  A
C1978      C1979   1.401       .  A
C1978      H1983   1.083       .  S
C1979      C1980   1.412       .  A
C1979      O1984   1.371       .  S
C1980      C1981   1.405       .  A
C1981      C1982   1.397       .  A
C1981      H1985   1.083       .  S
C1982      O1986   1.370       .  S
O1984      H1988   0.992       .  S
O1986      H1987   0.992       .  S
C1989      C1990   1.407       .  A
C1990      C1991   1.406       .  A
C1990      H1995   1.083       .  S
C1991      C1992   1.414       .  A
C1991      O1996   1.372       .  S
C1993      C1994   1.399       .  A
C1993      H1997   1.083       .  S
C1994      O1998   1.372       .  S
O1996      H2000   0.992   1_565  S
O1998      H1999   0.992       .  S
C2001      C4434   1.407       .  A
C2001      C2006   1.414       .  A
C2002      C4433   1.407       .  A
C2002      C2003   1.405       .  A
C2002      H2007   1.083       .  S
C2003      C4436   1.412       .  A
C2003      O2008   1.370       .  S
C2004      C4435   1.412       .  A
C2004      C2005   1.404       .  A
C2005      C2006   1.400       .  A
C2005      H2009   1.083   1_655  S
C2006      O2010   1.372   1_655  S
O2008      H2012   0.991       .  S
O2010      H2011   0.992       .  S
C2013      C4446   1.406       .  A
C2013      C2018   1.411       .  A
C2014      C4445   1.406       .  A
C2014      C2015   1.402       .  A
C2014      H2019   1.083   1_655  S
C2015      C4448   1.412       .  A
C2015      O2020   1.371   1_655  S
C2016      C4447   1.412       .  A
C2016      C2017   1.405       .  A
C2017      C2018   1.398       .  A
C2017      H2021   1.083       .  S
C2018      O2022   1.370       .  S
O2020      H2024   0.991       .  S
O2022      H2023   0.992       .  S
C2025      C4458   1.403       .  A
C2025      C2030   1.411       .  A
C2026      C4457   1.403       .  A
C2026      C2027   1.398       .  A
C2026      H2031   1.084   1_655  S
C2027      C4460   1.411       .  A
C2027      O2032   1.372   1_655  S
C2028      C4459   1.411       .  A
C2028      C2029   1.405       .  A
C2029      C2030   1.401       .  A
C2029      H2033   1.084       .  S
C2030      O2034   1.370       .  S
O2032      H2036   0.992       .  S
O2034      H2035   0.991       .  S
C2037      C4470   1.407       .  A
C2038      C4469   1.407       .  A
C2038      C2039   1.407       .  A
C2038      H2043   1.083       .  S
C2039      C4472   1.412   1_565  A
C2039      O2044   1.371       .  S
C2040      C4471   1.412   1_545  A
C2041      C2042   1.400       .  A
C2041      H2045   1.084   1_655  S
C2042      O2046   1.372   1_655  S
O2044      H2048   0.991   1_565  S
O2046      H2047   0.992       .  S
C2049      C2050   1.404       .  A
C2049      C2054   1.409       .  A
C2050      C2051   1.402       .  A
C2050      H2055   1.084       .  S
C2051      C2052   1.409       .  A
C2051      O2056   1.372       .  S
C2052      C2053   1.404       .  A
C2053      C2054   1.402       .  A
C2053      H2057   1.084       .  S
C2054      O2058   1.372       .  S
O2056      H2060   0.990       .  S
O2058      H2059   0.990       .  S
C2061      C2062   1.404       .  A
C2061      C2066   1.412       .  A
C2062      C2063   1.399       .  A
C2062      H2067   1.084       .  S
C2063      C2064   1.413       .  A
C2063      O2068   1.372       .  S
C2064      C2065   1.404       .  A
C2065      C2066   1.403       .  A
C2065      H2069   1.083       .  S
C2066      O2070   1.372       .  S
O2068      H2072   0.991       .  S
O2070      H2071   0.990       .  S
C2073      C2074   1.405       .  A
C2073      C2078   1.412       .  A
C2074      C2075   1.399       .  A
C2074      H2079   1.083       .  S
C2075      C2076   1.411       .  A
C2075      O2080   1.371       .  S
C2076      C2077   1.405       .  A
C2077      C2078   1.400       .  A
C2077      H2081   1.083       .  S
C2078      O2082   1.372       .  S
O2080      H2084   0.992       .  S
O2082      H2083   0.992       .  S
C2085      C2086   1.406       .  A
C2085      C2090   1.411       .  A
C2086      C2087   1.401       .  A
C2086      H2091   1.083       .  S
C2087      C2088   1.411       .  A
C2087      O2092   1.371       .  S
C2088      C2089   1.406       .  A
C2089      C2090   1.399       .  A
C2089      H2093   1.083       .  S
C2090      O2094   1.372       .  S
O2092      H2096   0.991       .  S
O2094      H2095   0.991       .  S
C2097      C2102   1.407       .  A
C2098      C2099   1.404       .  A
C2098      H2103   1.084       .  S
C2099      O2104   1.372       .  S
C2100      C2101   1.407       .  A
C2101      C2102   1.403       .  A
C2101      H2105   1.084       .  S
C2102      O2106   1.372       .  S
O2104      H2108   0.990       .  S
O2106      H2107   0.991       .  S
C2109      C2114   1.413   1_565  A
C2110      C2111   1.398       .  A
C2110      H2115   1.083       .  S
C2111      C2112   1.413       .  A
C2111      O2116   1.372       .  S
C2113      C2114   1.405       .  A
C2113      H2117   1.083       .  S
C2114      O2118   1.371       .  S
O2116      H2120   0.991       .  S
O2118      H2119   0.991   1_545  S
C2121      C2122   1.404   1_655  A
C2121      C4558   1.410       .  A
C2122      C2123   1.403       .  A
C2122      H2127   1.084       .  S
C2123      C2124   1.409   1_455  A
C2123      O2128   1.372       .  S
C2124      C4557   1.403       .  A
C2125      C4556   1.403       .  A
C2125      C2126   1.402       .  A
C2125      H2129   1.084       .  S
C2126      C4553   1.410       .  A
C2126      O2130   1.372       .  S
O2128      H2132   0.992       .  S
O2130      H2131   0.992       .  S
C2133      C2134   1.404       .  A
C2133      C4570   1.414       .  A
C2134      C2135   1.399       .  A
C2134      H2139   1.083   1_655  S
C2135      C2136   1.414       .  A
C2135      O2140   1.372   1_655  S
C2136      C4569   1.406       .  A
C2137      C4568   1.406       .  A
C2137      C2138   1.405       .  A
C2137      H2141   1.083       .  S
C2138      C4565   1.414       .  A
C2138      O2142   1.371       .  S
O2140      H2144   0.992       .  S
O2142      H2143   0.991       .  S
C2145      C4578   1.405       .  A
C2145      C2150   1.412       .  A
C2146      C4577   1.405   1_455  A
C2146      C2147   1.399       .  A
C2146      H2151   1.083       .  S
C2147      C4580   1.411   1_455  A
C2147      O2152   1.372       .  S
C2148      C4579   1.411       .  A
C2148      C2149   1.405       .  A
C2149      C2150   1.398       .  A
C2149      H2153   1.083       .  S
C2150      O2154   1.372       .  S
O2152      H2156   0.992       .  S
O2154      H2155   0.992       .  S
C2157      C2158   1.406       .  A
C2157      C4594   1.411       .  A
C2158      C2159   1.401       .  A
C2158      H2163   1.083       .  S
C2159      C2160   1.411       .  A
C2159      O2164   1.371       .  S
C2160      C4593   1.406       .  A
C2161      C4592   1.406   1_455  A
C2161      C2162   1.399       .  A
C2161      H2165   1.083       .  S
C2162      C4589   1.411   1_455  A
C2162      O2166   1.372       .  S
O2164      H2168   0.992       .  S
O2166      H2167   0.992       .  S
C2169      C4602   1.402       .  A
C2170      C4601   1.402       .  A
C2170      C2171   1.400       .  A
C2170      H2175   1.084       .  S
C2171      C4604   1.408       .  A
C2171      O2176   1.372       .  S
C2172      C4603   1.408       .  A
C2173      C2174   1.405       .  A
C2173      H2177   1.084       .  S
C2174      O2178   1.372       .  S
O2176      H2180   0.990       .  S
O2178      H2179   0.990       .  S
C2181      C4618   1.413   1_565  A
C2182      C2183   1.401   1_655  A
C2182      H2187   1.083   1_655  S
C2183      O2188   1.372       .  S
C2184      C4617   1.408       .  A
C2185      C4616   1.408       .  A
C2185      C2186   1.406       .  A
C2185      H2189   1.083       .  S
C2186      C4613   1.413   1_545  A
C2186      O2190   1.371       .  S
O2188      H2192   0.990       .  S
O2190      H2191   0.993   1_545  S
C2193      C2194   1.404       .  A
C2193      C2198   1.414       .  A
C2194      C2195   1.398       .  A
C2194      H2199   1.083       .  S
C2195      C2196   1.413       .  A
C2195      O2200   1.372       .  S
C2196      C2197   1.408       .  A
C2197      C2198   1.407       .  A
C2197      H2201   1.083       .  S
C2198      O2202   1.371       .  S
O2200      H2204   0.992       .  S
O2202      H2203   0.991       .  S
C2205      C2210   1.411       .  A
C2206      C2207   1.405       .  A
C2206      H2211   1.083       .  S
C2207      O2212   1.371       .  S
C2208      C2209   1.405       .  A
C2209      C2210   1.398       .  A
C2209      H2213   1.083       .  S
C2210      O2214   1.372       .  S
O2212      H2216   0.990       .  S
O2214      H2215   0.992       .  S
C2217      C2218   1.405       .  A
C2217      C2222   1.412       .  A
C2218      C2219   1.400       .  A
C2218      H2223   1.084       .  S
C2219      C2220   1.413       .  A
C2219      O2224   1.372       .  S
C2220      C2221   1.403       .  A
C2221      C2222   1.396       .  A
C2221      H2225   1.083       .  S
C2222      O2226   1.372       .  S
O2224      H2228   0.991       .  S
O2226      H2227   0.992       .  S
C2229      C2230   1.405       .  A
C2229      C2234   1.413       .  A
C2230      C2231   1.402       .  A
C2230      H2235   1.083       .  S
C2231      C2232   1.413       .  A
C2231      O2236   1.372       .  S
C2232      C2233   1.404       .  A
C2233      C2234   1.398       .  A
C2233      H2237   1.083       .  S
C2234      O2238   1.372       .  S
O2236      H2240   0.991       .  S
O2238      H2239   0.991       .  S
C2241      C2242   1.404       .  A
C2241      C4678   1.413       .  A
C2242      C2243   1.398       .  A
C2242      H2247   1.083       .  S
C2243      C2244   1.414       .  A
C2243      O2248   1.372       .  S
C2244      C4677   1.406       .  A
C2245      C4676   1.406       .  A
C2245      C2246   1.404       .  A
C2245      H2249   1.083       .  S
C2246      C4673   1.413       .  A
C2246      O2250   1.370       .  S
O2248      H2252   0.992   1_455  S
O2250      H2251   0.992       .  S
C2253      C2258   1.411       .  A
C2254      C2255   1.398       .  A
C2254      H2259   1.083       .  S
C2255      C2256   1.411       .  A
C2255      O2260   1.371       .  S
C2257      C2258   1.399       .  A
C2257      H2261   1.083       .  S
C2258      O2262   1.372       .  S
O2260      H2264   0.992       .  S
O2262      H2263   0.992       .  S
C2265      C2270   1.410       .  A
C2266      C2267   1.400       .  A
C2266      H2271   1.083       .  S
C2267      C2268   1.410       .  A
C2267      O2272   1.372       .  S
C2269      C2270   1.399       .  A
C2269      H2273   1.083       .  S
C2270      O2274   1.371       .  S
O2272      H2276   0.991       .  S
O2274      H2275   0.992       .  S
C2277      C3494   1.406       .  A
C2277      C2282   1.411   1_455  A
C2278      C3493   1.406       .  A
C2278      C2279   1.400       .  A
C2278      H2283   1.083       .  S
C2279      C3496   1.413       .  A
C2279      O2284   1.372       .  S
C2280      C3495   1.413       .  A
C2280      C2281   1.406   1_455  A
C2281      C2282   1.403       .  A
C2281      H2285   1.083       .  S
C2282      O2286   1.370       .  S
O2284      H2288   0.992       .  S
O2286      H2287   0.992       .  S
C2289      C2290   1.406       .  A
C2289      C2294   1.411       .  A
C2290      C2291   1.402       .  A
C2290      H2295   1.084       .  S
C2291      C2292   1.406       .  A
C2291      O2296   1.372       .  S
C2292      C2293   1.404       .  A
C2293      C2294   1.403       .  A
C2293      H2297   1.084       .  S
C2294      O2298   1.372       .  S
O2296      H2300   0.992       .  S
O2298      H2299   0.992       .  S
C2301      C2302   1.406       .  A
C2301      C2306   1.414       .  A
C2302      C2303   1.403       .  A
C2302      H2307   1.083       .  S
C2303      C2304   1.413       .  A
C2303      O2308   1.371       .  S
C2304      C2305   1.407       .  A
C2305      C2306   1.403       .  A
C2305      H2309   1.083       .  S
C2306      O2310   1.372       .  S
O2308      H2312   0.991       .  S
O2310      H2311   0.992       .  S
C2313      C2314   1.405       .  A
C2313      C2318   1.412       .  A
C2314      C2315   1.399       .  A
C2314      H2319   1.083       .  S
C2315      C2316   1.412       .  A
C2315      O2320   1.372       .  S
C2316      C2317   1.405       .  A
C2317      C2318   1.398       .  A
C2317      H2321   1.083       .  S
C2318      O2322   1.372       .  S
O2320      H2324   0.992       .  S
O2322      H2323   0.992       .  S
C2325      C2326   1.405       .  A
C2325      C2330   1.412       .  A
C2326      C2327   1.399       .  A
C2326      H2331   1.083       .  S
C2327      C2328   1.411       .  A
C2327      O2332   1.371       .  S
C2328      C2329   1.406       .  A
C2329      C2330   1.401       .  A
C2329      H2333   1.083       .  S
C2330      O2334   1.372       .  S
O2332      H2336   0.991       .  S
O2334      H2335   0.992       .  S
C2337      C2338   1.406       .  A
C2338      C2339   1.402       .  A
C2338      H2343   1.084       .  S
C2339      C2340   1.407       .  A
C2339      O2344   1.372       .  S
C2341      C2342   1.402       .  A
C2341      H2345   1.084       .  S
C2342      O2346   1.371       .  S
O2344      H2348   0.992       .  S
O2346      H2347   0.992       .  S
C2349      C2354   1.413       .  A
C2350      C2351   1.400       .  A
C2350      H2355   1.083       .  S
C2351      O2356   1.372       .  S
C2352      C2353   1.407       .  A
C2353      C2354   1.405       .  A
C2353      H2357   1.083       .  S
C2354      O2358   1.371   1_545  S
O2356      H2360   0.992       .  S
O2358      H2359   0.991       .  S
C2361      C2362   1.406   1_655  A
C2361      C4798   1.406       .  A
C2362      C2363   1.403       .  A
C2362      H2367   1.084       .  S
C2363      C2364   1.407   1_455  A
C2363      O2368   1.372       .  S
C2364      C4797   1.405       .  A
C2365      C4796   1.405       .  A
C2365      C2366   1.399       .  A
C2365      H2369   1.084       .  S
C2366      C4793   1.406       .  A
C2366      O2370   1.372       .  S
O2368      H2372   0.990       .  S
O2370      H2371   0.990       .  S
C2373      C4806   1.408       .  A
C2373      C2378   1.413       .  A
C2374      C4805   1.408       .  A
C2374      C2375   1.407       .  A
C2374      H2379   1.083       .  S
C2375      C4808   1.414       .  A
C2375      O2380   1.371       .  S
C2376      C4807   1.414       .  A
C2376      C2377   1.404       .  A
C2377      C2378   1.398       .  A
C2377      H2381   1.083   1_655  S
C2378      O2382   1.372   1_655  S
O2380      H2384   0.991       .  S
O2382      H2383   0.992       .  S
C2385      C2386   1.404       .  A
C2385      C4822   1.412       .  A
C2386      C2387   1.400       .  A
C2386      H2391   1.083       .  S
C2387      C4820   1.411       .  A
C2387      O2392   1.372       .  S
C2388      C4819   1.411   1_655  A
C2388      C2389   1.404       .  A
C2389      C2390   1.400       .  A
C2389      H2393   1.084       .  S
C2390      C4817   1.412       .  A
C2390      O2394   1.372       .  S
O2392      H2396   0.991       .  S
O2394      H2395   0.992       .  S
C2397      C4830   1.405       .  A
C2397      C2402   1.413   1_655  A
C2398      C4829   1.405       .  A
C2398      C2399   1.399       .  A
C2398      H2403   1.083       .  S
C2399      C2400   1.413       .  A
C2399      O2404   1.372       .  S
C2400      C4833   1.406       .  A
C2401      C4832   1.406   1_455  A
C2401      C2402   1.403       .  A
C2401      H2405   1.083       .  S
C2402      O2406   1.371       .  S
O2404      H2408   0.992       .  S
O2406      H2407   0.992       .  S
C2409      C3626   1.406       .  A
C2409      C2414   1.409       .  A
C2410      C3625   1.406   1_455  A
C2410      C2411   1.402       .  A
C2410      H2415   1.084       .  S
C2411      C2412   1.406   1_455  A
C2411      O2416   1.372       .  S
C2412      C3629   1.403   1_565  A
C2413      C3628   1.403       .  A
C2413      C2414   1.400       .  A
C2413      H2417   1.084       .  S
C2414      O2418   1.372       .  S
O2416      H2420   0.992       .  S
O2418      H2419   0.992       .  S
C2421      C2422   1.407       .  A
C2421      C3642   1.413       .  A
C2422      C2423   1.405       .  A
C2422      H2427   1.083       .  S
C2423      C3640   1.413       .  A
C2423      O2428   1.371       .  S
C2424      C3639   1.413       .  A
C2424      C2425   1.407       .  A
C2425      C2426   1.400   1_655  A
C2425      H2429   1.083   1_645  S
C2426      C3637   1.413   1_455  A
C2426      O2430   1.372   1_545  S
O2428      H2432   0.991       .  S
O2430      H2431   0.992       .  S
O2433      V3657   1.900       .  S
O2434      V2441   1.900   1_545  S
O2435      V2441   1.904   1_545  S
O2435      C2445   1.265       .  A
O2436      V3657   1.898       .  S
O2436      C2446   1.264       .  A
O2437      V3658   1.902       .  S
O2438      V2442   1.899   1_545  S
O2439      V3658   1.907       .  S
O2439      C3660   1.267       .  A
O2440      V2442   1.903       .  S
O2440      C2443   1.265       .  A
V2441      O3649   1.900       .  S
V2441      O3652   1.898       .  S
V2442      O3653   1.902       .  S
V2442      O3655   1.907   1_565  S
C2443      C3625   1.478       .  S
C2444      O3655   1.267       .  A
C2444      C3637   1.491       .  S
C2445      C3613   1.488       .  S
C2446      C3604   1.482       .  S
O2447      V2455   1.905       .  S
O2448      V2455   1.912       .  S
O2449      V2455   1.894       .  S
O2449      C2459   1.263       .  A
O2450      V2455   1.896       .  S
O2450      C2460   1.264       .  A
O2451      V2456   1.903       .  S
O2452      V2456   1.909       .  S
O2453      V2456   1.895       .  S
O2453      C2458   1.264       .  A
O2454      V2456   1.897       .  S
O2454      C2457   1.263       .  A
C2457      C3577   1.476       .  S
C2458      C3589   1.491       .  S
C2459      C3616   1.489       .  S
C2460      C3601   1.482       .  S
O2461      V3685   1.908       .  S
O2461      C3687   1.267       .  A
O2462      V2469   1.906       .  S
O2462      C2472   1.266       .  A
O2463      V2469   1.895       .  S
O2463      C2473   1.264       .  A
O2464      V3685   1.901       .  S
O2464      C2474   1.265       .  A
O2465      V3686   1.898       .  S
O2465      C2474   1.265       .  A
O2466      V2470   1.899       .  S
O2466      C2473   1.265       .  A
O2467      V3686   1.900   1_565  S
O2467      C3688   1.264       .  A
O2468      V2470   1.898       .  S
O2468      C2471   1.265       .  A
V2469      O3677   1.908       .  S
V2469      O3680   1.901       .  S
V2469      V2470   2.084       .  T
V2470      O3681   1.898       .  S
V2470      O3683   1.900       .  S
C2471      O3677   1.267       .  A
C2471      C3568   1.491       .  S
C2472      O3683   1.264       .  A
C2472      C4769   1.483       .  S
C2473      C3529   1.483       .  S
C2474      C3541   1.486       .  S
O2475      V2483   1.900       .  S
O2475      C2485   1.264       .  A
O2476      V2483   1.901       .  S
O2476      C2486   1.265       .  A
O2477      V2483   1.901       .  S
O2477      C2487   1.265       .  A
O2478      V2483   1.898       .  S
O2478      C2488   1.264       .  A
O2479      V2484   1.897       .  S
O2479      C2488   1.265       .  A
O2480      V2484   1.897       .  S
O2480      C2487   1.264       .  A
O2481      V2484   1.907       .  S
O2481      C2486   1.267       .  A
O2482      V2484   1.908       .  S
O2482      C2485   1.266       .  A
V2483      V2484   2.084       .  T
C2485      C3505   1.483       .  S
C2486      C3517   1.492       .  S
C2487      C3544   1.486       .  S
C2488      C3532   1.483       .  S
O2490      V2497   1.897       .  S
O2490      C3716   1.264       .  A
O2491      V2497   1.905   1_545  S
O2491      C2501   1.267   1_545  A
O2492      C2502   1.265   1_545  A
O2493      C3718   1.264       .  A
O2494      V2498   1.892       .  S
O2494      C3717   1.263       .  A
O2496      V2498   1.904       .  S
O2496      C2499   1.265       .  A
V2497      V3714   2.084       .  T
V2498      V3713   2.084       .  T
C2499      C3628   1.473       .  S
C2500      O3706   1.264       .  A
C2500      C3496   1.489       .  S
C2501      O3710   1.263       .  A
C2501      C3481   1.485       .  S
C2502      O3709   1.264       .  A
C2502      C3472   1.483       .  S
O2504      V2511   1.912       .  S
O2504      C2514   1.268       .  A
O2505      V2511   1.891       .  S
O2505      C2515   1.263       .  A
O2506      C2516   1.263       .  A
O2507      C2516   1.266       .  A
O2508      V2512   1.906       .  S
O2508      C2515   1.267       .  A
O2510      V2512   1.891       .  S
O2510      C2513   1.262       .  A
V2511      V2512   2.084       .  T
C2513      C3580   1.476       .  S
C2514      C3460   1.489       .  S
C2515      C3445   1.486       .  S
C2516      C3436   1.482       .  S
O2517      V2525   1.910       .  S
O2517      C3743   1.266       .  A
O2518      V2525   1.906       .  S
O2518      C3744   1.266       .  A
O2519      V2525   1.900       .  S
O2519      C2529   1.265       .  A
O2520      V2525   1.904       .  S
O2520      C2530   1.266       .  A
O2521      V2526   1.893       .  S
O2521      C3746   1.264       .  A
O2522      V2526   1.894       .  S
O2522      C3745   1.264       .  A
O2523      V2526   1.897   1_545  S
O2523      C2528   1.263   1_545  A
O2524      V2526   1.896       .  S
O2524      C2527   1.265       .  A
V2525      V3742   2.084       .  T
V2526      V3741   2.084       .  T
C2527      O3733   1.266       .  A
C2527      C3424   1.488       .  S
C2528      O3734   1.266       .  A
C2528      C3556   1.473       .  S
C2529      O3738   1.264       .  A
C2529      C3469   1.482       .  S
C2530      O3737   1.264       .  A
C2530      C3484   1.485       .  S
O2531      V2539   1.898       .  S
O2531      C2541   1.266       .  A
O2532      V2539   1.900       .  S
O2532      C2542   1.264       .  A
O2533      V2539   1.890       .  S
O2533      C2543   1.263       .  A
O2534      V2539   1.899       .  S
O2534      C2544   1.264       .  A
O2535      V2540   1.900       .  S
O2535      C2544   1.266       .  A
O2536      V2540   1.902       .  S
O2536      C2543   1.266       .  A
O2537      V2540   1.906       .  S
O2537      C2542   1.266       .  A
O2538      V2540   1.909       .  S
O2538      C2541   1.266       .  A
V2539      V2540   2.084       .  T
C2541      C3409   1.491       .  S
C2542      C3508   1.476       .  S
C2543      C3433   1.482       .  S
C2544      C3448   1.486       .  S
O2545      V3769   1.906       .  S
O2546      V2553   1.901       .  S
O2547      V2553   1.896       .  S
O2547      C2557   1.265       .  A
O2548      V3769   1.901       .  S
O2548      C2558   1.265       .  A
O2549      V3770   1.898       .  S
O2550      V2554   1.899       .  S
O2551      V3770   1.906       .  S
O2551      C3772   1.265       .  A
O2552      V2554   1.903       .  S
O2552      C2555   1.266       .  A
V2553      O3761   1.906       .  S
V2553      O3764   1.901       .  S
V2554      O3765   1.898       .  S
V2554      O3767   1.906       .  S
C2555      C3400   1.493       .  S
C2556      O3767   1.265       .  A
C2556      C3388   1.479       .  S
C2557      C3364   1.483       .  S
C2558      C3373   1.484       .  S
O2559      V2567   1.904       .  S
O2560      V2567   1.901       .  S
O2561      V2567   1.902       .  S
O2561      C2571   1.265       .  A
O2562      V2567   1.897       .  S
O2562      C2572   1.264       .  A
O2563      V2568   1.898       .  S
O2564      V2568   1.896       .  S
O2565      V2568   1.906       .  S
O2565      C2570   1.265       .  A
O2566      V2568   1.903       .  S
O2566      C2569   1.267       .  A
C2569      C3349   1.490       .  S
C2570      C3337   1.480       .  S
C2571      C3376   1.485       .  S
C2572      C3361   1.483       .  S
O2573      V3797   1.911       .  S
O2573      C3799   1.267       .  A
O2574      V2581   1.911       .  S
O2574      C2584   1.267   1_545  A
O2575      V2581   1.896       .  S
O2575      C2585   1.264       .  A
O2576      V3797   1.898       .  S
O2576      C2586   1.264       .  A
O2577      V3798   1.898       .  S
O2577      C2586   1.265       .  A
O2578      V2582   1.905       .  S
O2578      C2585   1.266       .  A
O2579      V3798   1.900       .  S
O2579      C3800   1.263       .  A
O2580      V2582   1.895       .  S
O2580      C2583   1.264       .  A
V2581      O3789   1.911       .  S
V2581      O3792   1.898   1_545  S
V2581      V2582   2.083       .  T
V2582      O3793   1.898   1_545  S
V2582      O3795   1.900   1_545  S
C2583      O3789   1.267       .  A
C2583      C3328   1.489       .  S
C2584      O3795   1.263       .  A
C2584      C3313   1.480       .  S
C2585      C3304   1.486       .  S
C2586      C3289   1.484       .  S
O2587      V2595   1.902       .  S
O2587      C2597   1.265       .  A
O2588      V2595   1.901       .  S
O2588      C2598   1.266       .  A
O2589      V2595   1.900       .  S
O2589      C2599   1.265       .  A
O2590      V2595   1.900       .  S
O2590      C2600   1.265       .  A
O2591      V2596   1.900       .  S
O2591      C2600   1.265       .  A
O2592      V2596   1.898       .  S
O2592      C2599   1.265       .  A
O2593      V2596   1.900       .  S
O2593      C2598   1.264       .  A
O2594      V2596   1.902       .  S
O2594      C2597   1.265       .  A
V2595      V2596   2.085       .  T
C2597      C3265   1.478       .  S
C2598      C3277   1.484       .  S
C2599      C3292   1.484       .  S
C2600      C3301   1.485       .  S
O2601      V3825   1.911       .  S
O2602      V2609   1.911       .  S
O2603      V2609   1.898       .  S
O2603      C2613   1.265       .  A
O2604      V3825   1.898   1_545  S
O2604      C2614   1.264       .  A
O2605      V3826   1.897   1_545  S
O2606      V2610   1.901       .  S
O2607      V3826   1.899       .  S
O2607      C3828   1.265       .  A
O2608      V2610   1.899       .  S
O2608      C2611   1.265       .  A
V2609      O3817   1.911       .  S
V2609      O3820   1.898       .  S
V2610      O3821   1.897       .  S
V2610      O3823   1.899       .  S
C2611      C3253   1.491       .  S
C2612      O3823   1.265       .  A
C2612      C3397   1.493       .  S
C2613      C3232   1.486       .  S
C2614      C3241   1.480       .  S
O2615      V2623   1.913       .  S
O2616      V2623   1.913       .  S
O2617      V2623   1.902       .  S
O2617      C2627   1.265       .  A
O2618      V2623   1.897       .  S
O2618      C2628   1.264       .  A
O2619      V2624   1.900       .  S
O2620      V2624   1.897       .  S
O2621      V2624   1.893       .  S
O2621      C2626   1.263       .  A
O2622      V2624   1.894       .  S
O2622      C2625   1.263       .  A
C2625      C3217   1.491       .  S
C2626      C3352   1.490       .  S
C2627      C3244   1.481       .  S
C2628      C3229   1.485       .  S
O2629      V3853   1.906       .  S
O2629      C3855   1.265       .  A
O2630      V2637   1.907       .  S
O2630      C2640   1.266       .  A
O2631      V2637   1.900       .  S
O2631      C2641   1.265       .  A
O2632      V3853   1.898   1_545  S
O2632      C2642   1.265       .  A
O2633      V3854   1.898   1_545  S
O2633      C2642   1.264       .  A
O2634      V2638   1.895       .  S
O2634      C2641   1.263       .  A
O2635      V3854   1.900       .  S
O2635      C3856   1.266       .  A
O2636      V2638   1.898       .  S
O2636      C2639   1.266       .  A
V2637      O3845   1.906       .  S
V2637      O3848   1.898       .  S
V2637      V2638   2.084       .  T
V2638      O3849   1.898       .  S
V2638      O3851   1.900       .  S
C2639      O3845   1.265       .  A
C2639      C3325   1.488       .  S
C2640      O3851   1.266       .  A
C2640      C3208   1.491       .  S
C2641      C3181   1.484       .  S
C2642      C3193   1.484       .  S
O2643      V2651   1.891       .  S
O2643      C2653   1.263       .  A
O2644      V2651   1.890       .  S
O2644      C2654   1.262       .  A
O2645      V2651   1.900       .  S
O2645      C2655   1.265       .  A
O2646      V2651   1.898       .  S
O2646      C2656   1.265       .  A
O2647      V2652   1.897       .  S
O2647      C2656   1.264       .  A
O2648      V2652   1.895       .  S
O2648      C2655   1.264       .  A
O2649      V2652   1.911       .  S
O2649      C2654   1.268       .  A
O2650      V2652   1.914       .  S
O2650      C2653   1.268       .  A
V2651      V2652   2.084       .  T
C2653      C3169   1.491       .  S
C2654      C3280   1.484       .  S
C2655      C3196   1.484       .  S
C2656      C3184   1.484       .  S
O2658      V2665   1.909       .  S
O2658      C3884   1.267       .  A
O2659      V2665   1.905       .  S
O2659      C2669   1.266       .  A
O2660      C2670   1.266       .  A
O2661      C3886   1.263       .  A
O2662      V2666   1.894       .  S
O2662      C3885   1.263       .  A
O2664      V2666   1.892       .  S
O2664      C2667   1.263   1_655  A
V2665      V3882   2.084       .  T
V2666      V3881   2.084       .  T
C2667      C3145   1.489       .  S
C2668      O3874   1.267       .  A
C2668      C3157   1.487       .  S
C2669      O3878   1.263       .  A
C2669      C3124   1.484       .  S
C2670      O3877   1.263       .  A
C2670      C3133   1.483       .  S
O2672      V2679   1.906       .  S
O2672      C2682   1.266       .  A
O2673      V2679   1.897       .  S
O2673      C2683   1.264       .  A
O2674      C2684   1.264       .  A
O2675      C2684   1.265       .  A
O2676      V2680   1.902       .  S
O2676      C2683   1.265       .  A
O2678      V2680   1.894       .  S
O2678      C2681   1.264       .  A
V2679      V2680   2.085       .  T
C2681      C3097   1.489       .  S
C2682      C3109   1.487       .  S
C2683      C3085   1.484       .  S
C2684      C3073   1.483       .  S
O2685      V2693   1.907       .  S
O2685      C3911   1.267       .  A
O2686      V2693   1.907       .  S
O2686      C3912   1.267       .  A
O2687      V2693   1.894       .  S
O2687      C2697   1.264       .  A
O2688      V2693   1.894       .  S
O2688      C2698   1.263       .  A
O2689      V2694   1.901       .  S
O2689      C3914   1.266       .  A
O2690      V2694   1.905       .  S
O2690      C3913   1.266       .  A
O2691      V2694   1.895       .  S
O2691      C2696   1.263       .  A
O2692      V2694   1.894       .  S
O2692      C2695   1.263       .  A
V2693      V3910   2.084       .  T
V2694      V3909   2.084       .  T
C2695      O3901   1.267       .  A
C2695      C3061   1.488       .  S
C2696      O3902   1.267       .  A
C2696      C3052   1.486       .  S
C2697      O3906   1.266       .  A
C2697      C3121   1.484       .  S
C2698      O3905   1.266       .  A
C2698      C3136   1.482       .  S
O2699      V2707   1.902       .  S
O2699      C2709   1.266       .  A
O2700      V2707   1.900       .  S
O2700      C2710   1.265       .  A
O2701      V2707   1.895       .  S
O2701      C2711   1.264       .  A
O2702      V2707   1.899       .  S
O2702      C2712   1.264       .  A
O2703      V2708   1.899       .  S
O2703      C2712   1.266       .  A
O2704      V2708   1.905       .  S
O2704      C2711   1.266       .  A
O2705      V2708   1.904       .  S
O2705      C2710   1.265       .  A
O2706      V2708   1.901       .  S
O2706      C2709   1.265       .  A
V2707      V2708   2.084       .  T
C2709      C3037   1.485       .  S
C2710      C3025   1.484       .  S
C2711      C3076   1.484       .  S
C2712      C3088   1.484       .  S
O2714      V2721   1.904       .  S
O2714      C3940   1.265   1_545  A
O2715      V2721   1.900       .  S
O2715      C2725   1.265   1_545  A
O2716      C2726   1.266   1_545  A
O2717      C3942   1.263       .  A
O2718      V2722   1.896       .  S
O2718      C3941   1.264       .  A
O2720      V2722   1.903       .  S
O2720      C2723   1.265       .  A
V2721      V3938   2.085   1_545  T
V2722      V3937   2.085       .  T
C2723      C3160   1.486       .  S
C2724      O3930   1.265       .  A
C2724      C3385   1.479       .  S
C2725      O3934   1.264       .  A
C2725      C3013   1.485       .  S
C2726      O3933   1.263       .  A
C2726      C3001   1.482       .  S
O2728      V2735   1.903       .  S
O2728      C2738   1.265       .  A
O2729      V2735   1.904       .  S
O2729      C2739   1.266       .  A
O2730      C2740   1.265       .  A
O2731      C2740   1.264       .  A
O2732      V2736   1.894       .  S
O2732      C2739   1.264       .  A
O2734      V2736   1.901       .  S
O2734      C2737   1.265       .  A
V2735      V2736   2.084       .  T
C2737      C3112   1.488       .  S
C2738      C3340   1.477       .  S
C2739      C2989   1.486       .  S
C2740      C2977   1.484       .  S
O2741      V2749   1.907       .  S
O2741      C3967   1.266       .  A
O2742      V2749   1.906       .  S
O2742      C3968   1.266       .  A
O2743      V2749   1.901       .  S
O2743      C2753   1.266       .  A
O2744      V2749   1.900       .  S
O2744      C2754   1.265       .  A
O2745      V2750   1.898       .  S
O2745      C3970   1.265   1_545  A
O2746      V2750   1.895       .  S
O2746      C3969   1.263   1_545  A
O2747      V2750   1.898       .  S
O2747      C2752   1.265   1_545  A
O2748      V2750   1.904       .  S
O2748      C2751   1.265   1_545  A
V2749      V3966   2.084       .  T
V2750      V3965   2.084   1_545  T
C2751      O3957   1.266       .  A
C2751      C3316   1.485       .  S
C2752      O3958   1.266       .  A
C2752      C3064   1.489       .  S
C2753      O3962   1.263       .  A
C2753      C3004   1.482       .  S
C2754      O3961   1.265       .  A
C2754      C3016   1.485       .  S
O2755      V2763   1.902       .  S
O2755      C2765   1.264       .  A
O2756      V2763   1.900       .  S
O2756      C2766   1.265       .  A
O2757      V2763   1.902       .  S
O2757      C2767   1.267       .  A
O2758      V2763   1.900       .  S
O2758      C2768   1.265       .  A
O2759      V2764   1.898       .  S
O2759      C2768   1.265       .  A
O2760      V2764   1.892       .  S
O2760      C2767   1.263       .  A
O2761      V2764   1.903       .  S
O2761      C2766   1.266       .  A
O2762      V2764   1.904       .  S
O2762      C2765   1.265       .  A
V2763      V2764   2.085       .  T
C2765      C3268   1.477       .  S
C2766      C3040   1.484       .  S
C2767      C2980   1.483       .  S
C2768      C2992   1.485       .  S
O2770      V2777   1.892       .  S
O2770      C3996   1.264       .  A
O2771      V2777   1.898       .  S
O2771      C2781   1.265       .  A
O2772      C2782   1.266       .  A
O2773      C3998   1.264       .  A
O2774      V2778   1.896       .  S
O2774      C3997   1.263       .  A
O2776      V2778   1.909       .  S
O2776      C2779   1.267       .  A
V2777      V3994   2.084       .  T
V2778      V3993   2.084       .  T
C2779      C3493   1.488       .  S
C2780      O3986   1.264       .  A
C2780      C3148   1.489       .  S
C2781      O3990   1.263       .  A
C2781      C2968   1.482       .  S
C2782      O3989   1.264       .  A
C2782      C2953   1.485       .  S
O2784      V2791   1.905       .  S
O2784      C2794   1.266       .  A
O2785      V2791   1.898       .  S
O2785      C2795   1.265       .  A
O2786      C2796   1.265       .  A
O2787      C2796   1.264       .  A
O2788      V2792   1.898       .  S
O2788      C2795   1.264       .  A
O2790      V2792   1.898       .  S
O2790      C2793   1.265       .  A
V2791      V2792   2.084       .  T
C2793      C3457   1.489       .  S
C2794      C3100   1.488       .  S
C2795      C2941   1.484       .  S
C2796      C2929   1.483       .  S
O2797      V2805   1.906       .  S
O2797      C4023   1.266       .  A
O2798      V2805   1.908       .  S
O2798      C4024   1.266       .  A
O2799      V2805   1.899       .  S
O2799      C2809   1.265       .  A
O2800      V2805   1.898       .  S
O2800      C2810   1.265       .  A
O2801      V2806   1.896       .  S
O2801      C4026   1.264       .  A
O2802      V2806   1.898       .  S
O2802      C4025   1.264       .  A
O2803      V2806   1.896       .  S
O2803      C2808   1.264       .  A
O2804      V2806   1.896       .  S
O2804      C2807   1.264       .  A
V2805      V4022   2.084       .  T
V2806      V4021   2.084       .  T
C2807      O4013   1.266       .  A
C2807      C3049   1.486       .  S
C2808      O4014   1.266       .  A
C2808      C3421   1.487       .  S
C2809      O4018   1.264       .  A
C2809      C2956   1.484       .  S
C2810      O4017   1.264       .  A
C2810      C2965   1.482       .  S
O2811      V2819   1.894       .  S
O2811      C2821   1.263       .  A
O2812      V2819   1.894       .  S
O2812      C2822   1.264       .  A
O2813      V2819   1.897       .  S
O2813      C2823   1.264       .  A
O2814      V2819   1.898       .  S
O2814      C2824   1.265       .  A
O2815      V2820   1.899       .  S
O2815      C2824   1.264       .  A
O2816      V2820   1.897       .  S
O2816      C2823   1.264       .  A
O2817      V2820   1.912       .  S
O2817      C2822   1.268       .  A
O2818      V2820   1.910       .  S
O2818      C2821   1.267       .  A
V2819      V2820   2.084       .  T
C2821      C3028   1.483       .  S
C2822      C3412   1.491       .  S
C2823      C2932   1.483       .  S
C2824      C2944   1.484       .  S
O2825      V4049   1.911       .  S
O2826      V2833   1.912       .  S
O2827      V2833   1.895       .  S
O2827      C2837   1.263       .  A
O2828      V4049   1.896       .  S
O2828      C2838   1.264       .  A
O2829      V4050   1.900       .  S
O2830      V2834   1.900       .  S
O2831      V4050   1.898       .  S
O2831      C4052   1.265       .  A
O2832      V2834   1.899       .  S
O2832      C2835   1.265       .  A
V2833      O4041   1.911       .  S
V2833      O4044   1.896       .  S
V2834      O4045   1.900       .  S
V2834      O4047   1.898       .  S
C2835      C3640   1.492       .  S
C2836      O4047   1.265       .  A
C2836      C3256   1.490       .  S
C2837      C2905   1.484       .  S
C2838      C2917   1.484       .  S
O2839      V2847   1.909       .  S
O2840      V2847   1.908       .  S
O2841      V2847   1.898       .  S
O2841      C2851   1.265       .  A
O2842      V2847   1.902       .  S
O2842      C2852   1.266       .  A
O2843      V2848   1.895       .  S
O2844      V2848   1.895       .  S
O2845      V2848   1.900       .  S
O2845      C2850   1.265       .  A
O2846      V2848   1.898       .  S
O2846      C2849   1.266       .  A
C2849      C3592   1.491       .  S
C2850      C3220   1.490       .  S
C2851      C2920   1.483       .  S
C2852      C2908   1.484       .  S
O2853      V4077   1.909       .  S
O2853      C4079   1.267       .  A
O2854      V2861   1.908       .  S
O2854      C2864   1.266       .  A
O2855      V2861   1.900       .  S
O2855      C2865   1.265       .  A
O2856      V4077   1.900   1_545  S
O2856      C2866   1.265       .  A
O2857      V4078   1.894   1_545  S
O2857      C2866   1.263       .  A
O2858      V2862   1.896       .  S
O2858      C2865   1.264       .  A
O2859      V4078   1.900       .  S
O2859      C4080   1.266       .  A
O2860      V2862   1.897       .  S
O2860      C2863   1.265       .  A
V2861      O4069   1.909       .  S
V2861      O4072   1.900       .  S
V2861      V2862   2.084       .  T
V2862      O4073   1.894       .  S
V2862      O4075   1.900       .  S
C2863      O4069   1.267       .  A
C2863      C3205   1.491       .  S
C2864      O4075   1.266       .  A
C2864      C3565   1.492       .  S
C2865      C2881   1.484       .  S
C2866      C2893   1.483       .  S
O2867      V2875   1.907       .  S
O2867      C2877   1.266       .  A
O2868      V2875   1.906       .  S
O2868      C2878   1.266       .  A
O2869      V2875   1.895       .  S
O2869      C2879   1.263       .  A
O2870      V2875   1.896       .  S
O2870      C2880   1.264       .  A
O2871      V2876   1.901       .  S
O2871      C2880   1.265       .  A
O2872      V2876   1.899       .  S
O2872      C2879   1.266       .  A
O2873      V2876   1.903       .  S
O2873      C2878   1.266       .  A
O2874      V2876   1.899       .  S
O2874      C2877   1.266       .  A
V2875      V2876   2.084       .  T
C2877      C3172   1.491       .  S
C2878      C3520   1.492       .  S
C2879      C2896   1.483       .  S
C2880      C2884   1.484       .  S
C2881      C2882   1.406       .  A
C2881      C2886   1.411       .  A
C2882      C2883   1.400       .  A
C2882      H2887   1.083       .  S
C2883      C2884   1.411       .  A
C2883      O2888   1.372       .  S
C2884      C2885   1.406       .  A
C2885      C2886   1.399       .  A
C2885      H2889   1.083       .  S
C2886      O2890   1.371       .  S
O2888      H2892   0.991       .  S
O2890      H2891   0.991       .  S
C2893      C2894   1.405       .  A
C2893      C2898   1.412       .  A
C2894      C2895   1.400       .  A
C2894      H2899   1.084       .  S
C2895      C2896   1.413       .  A
C2895      O2900   1.372       .  S
C2896      C2897   1.404       .  A
C2897      C2898   1.398       .  A
C2897      H2901   1.083       .  S
C2898      O2902   1.372       .  S
O2900      H2904   0.992       .  S
O2902      H2903   0.992       .  S
C2905      C2910   1.412       .  A
C2906      C2907   1.398       .  A
C2906      H2911   1.083       .  S
C2907      O2912   1.371       .  S
C2908      C2909   1.405       .  A
C2909      C2910   1.400       .  A
C2909      H2913   1.084       .  S
C2910      O2914   1.371       .  S
O2912      H2916   0.992       .  S
O2914      H2915   0.992       .  S
C2917      C2922   1.412       .  A
C2918      C2919   1.400       .  A
C2918      H2923   1.083       .  S
C2919      O2924   1.372       .  S
C2920      C2921   1.404       .  A
C2921      C2922   1.398       .  A
C2921      H2925   1.083       .  S
C2922      O2926   1.372       .  S
O2924      H2928   0.992       .  S
O2926      H2927   0.992       .  S
C2929      C2930   1.405       .  A
C2929      C2934   1.411       .  A
C2930      C2931   1.398       .  A
C2930      H2935   1.082       .  S
C2931      C2932   1.411       .  A
C2931      O2936   1.371       .  S
C2932      C2933   1.406       .  A
C2933      C2934   1.399       .  A
C2933      H2937   1.083       .  S
C2934      O2938   1.372       .  S
O2936      H2940   0.992       .  S
O2938      H2939   0.992       .  S
C2941      C2942   1.405       .  A
C2941      C2946   1.411       .  A
C2942      C2943   1.400       .  A
C2942      H2947   1.083       .  S
C2943      C2944   1.412       .  A
C2943      O2948   1.371       .  S
C2944      C2945   1.405       .  A
C2945      C2946   1.399       .  A
C2945      H2949   1.083       .  S
C2946      O2950   1.372       .  S
O2948      H2952   0.992       .  S
O2950      H2951   0.992       .  S
C2953      C2954   1.405       .  A
C2953      C4174   1.412       .  A
C2954      C2955   1.400       .  A
C2954      H2959   1.083   1_565  S
C2955      C4172   1.412       .  A
C2955      O2960   1.372   1_565  S
C2956      C4171   1.412       .  A
C2956      C2957   1.404       .  A
C2957      C2958   1.399       .  A
C2957      H2961   1.083       .  S
C2958      C4169   1.412       .  A
C2958      O2962   1.371       .  S
O2960      H2964   0.992       .  S
O2962      H2963   0.991       .  S
C2965      C2966   1.405       .  A
C2965      C4186   1.411       .  A
C2966      C2967   1.399       .  A
C2966      H2971   1.083       .  S
C2967      C4184   1.412       .  A
C2967      O2972   1.372       .  S
C2968      C4183   1.412       .  A
C2968      C2969   1.404       .  A
C2969      C2970   1.398       .  A
C2969      H2973   1.083   1_565  S
C2970      C4181   1.411       .  A
C2970      O2974   1.372   1_565  S
O2972      H2976   0.991       .  S
O2974      H2975   0.992       .  S
C2977      C2978   1.405       .  A
C2977      C2982   1.412       .  A
C2978      C2979   1.399       .  A
C2978      H2983   1.083       .  S
C2979      C2980   1.413       .  A
C2979      O2984   1.372       .  S
C2980      C2981   1.404       .  A
C2981      C2982   1.399       .  A
C2981      H2985   1.083       .  S
C2982      O2986   1.372       .  S
O2984      H2988   0.992       .  S
O2986      H2987   0.992       .  S
C2989      C2990   1.407       .  A
C2989      C2994   1.411       .  A
C2990      C2991   1.400       .  A
C2990      H2995   1.083       .  S
C2991      C2992   1.411       .  A
C2991      O2996   1.372       .  S
C2992      C2993   1.406       .  A
C2993      C2994   1.400       .  A
C2993      H2997   1.083       .  S
C2994      O2998   1.371       .  S
O2996      H3000   0.992       .  S
O2998      H2999   0.992       .  S
C3001      C3002   1.404   1_565  A
C3001      C4222   1.412       .  A
C3002      C3003   1.400       .  A
C3002      H3007   1.083       .  S
C3003      C4220   1.413   1_545  A
C3003      O3008   1.372       .  S
C3004      C4219   1.413       .  A
C3004      C3005   1.403       .  A
C3005      C3006   1.398       .  A
C3005      H3009   1.083       .  S
C3006      C4217   1.412       .  A
C3006      O3010   1.372       .  S
O3008      H3012   0.992       .  S
O3010      H3011   0.992       .  S
C3013      C4230   1.406       .  A
C3013      C3018   1.411   1_565  A
C3014      C4229   1.406       .  A
C3014      C3015   1.400       .  A
C3014      H3019   1.083       .  S
C3015      C3016   1.411       .  A
C3015      O3020   1.372       .  S
C3016      C4233   1.406       .  A
C3017      C4232   1.406   1_545  A
C3017      C3018   1.399       .  A
C3017      H3021   1.083       .  S
C3018      O3022   1.372       .  S
O3020      H3024   0.992       .  S
O3022      H3023   0.992       .  S
C3025      C3026   1.403       .  A
C3025      C3030   1.412       .  A
C3026      C3027   1.398   1_554  A
C3026      H3031   1.084       .  S
C3027      C3028   1.411       .  A
C3027      O3032   1.372       .  S
C3028      C3029   1.405       .  A
C3029      C3030   1.404   1_556  A
C3029      H3033   1.083       .  S
C3030      O3034   1.372       .  S
O3032      H3036   0.992       .  S
O3034      H3035   0.992       .  S
C3037      C3038   1.405       .  A
C3037      C3042   1.412       .  A
C3038      C3039   1.401       .  A
C3038      H3043   1.083       .  S
C3039      C3040   1.411       .  A
C3039      O3044   1.372       .  S
C3040      C3041   1.405       .  A
C3041      C3042   1.401       .  A
C3041      H3045   1.084       .  S
C3042      O3046   1.372       .  S
O3044      H3048   0.991       .  S
O3046      H3047   0.992       .  S
C3049      C3050   1.405       .  A
C3049      C4270   1.412       .  A
C3050      C3051   1.399   1_556  A
C3050      H3055   1.084   1_565  S
C3051      C3052   1.412       .  A
C3051      O3056   1.372   1_565  S
C3052      C4269   1.406       .  A
C3053      C4268   1.406       .  A
C3053      C3054   1.402   1_554  A
C3053      H3057   1.083       .  S
C3054      C4265   1.412       .  A
C3054      O3058   1.371       .  S
O3056      H3060   0.990       .  S
O3058      H3059   0.990       .  S
C3061      C4278   1.406       .  A
C3061      C3066   1.413       .  A
C3062      C4277   1.406       .  A
C3062      C3063   1.404       .  A
C3062      H3067   1.083       .  S
C3063      C4280   1.413       .  A
C3063      O3068   1.371       .  S
C3064      C4279   1.413       .  A
C3064      C3065   1.405       .  A
C3065      C3066   1.398       .  A
C3065      H3069   1.083   1_565  S
C3066      O3070   1.372   1_565  S
O3068      H3072   0.991       .  S
O3070      H3071   0.992       .  S
C3073      C3074   1.403       .  A
C3073      C3078   1.412       .  A
C3074      C3075   1.397       .  A
C3074      H3079   1.083       .  S
C3075      C3076   1.411       .  A
C3075      O3080   1.371       .  S
C3076      C3077   1.406       .  A
C3077      C3078   1.403       .  A
C3077      H3081   1.084       .  S
C3078      O3082   1.371       .  S
O3080      H3084   0.992       .  S
O3082      H3083   0.992       .  S
C3085      C3086   1.406       .  A
C3085      C3090   1.412       .  A
C3086      C3087   1.402       .  A
C3086      H3091   1.083       .  S
C3087      C3088   1.413       .  A
C3087      O3092   1.372       .  S
C3088      C3089   1.404       .  A
C3089      C3090   1.398       .  A
C3089      H3093   1.083       .  S
C3090      O3094   1.372       .  S
O3092      H3096   0.992       .  S
O3094      H3095   0.992       .  S
C3097      C3102   1.411       .  A
C3098      C3099   1.398   1_554  A
C3098      H3103   1.083       .  S
C3099      O3104   1.372       .  S
C3100      C3101   1.406       .  A
C3101      C3102   1.404   1_556  A
C3101      H3105   1.082       .  S
C3102      O3106   1.371       .  S
O3104      H3108   0.991       .  S
O3106      H3107   0.992       .  S
C3109      C3110   1.406       .  A
C3110      C3111   1.400       .  A
C3110      H3115   1.083       .  S
C3111      C3112   1.412       .  A
C3111      O3116   1.372       .  S
C3113      C3114   1.402       .  A
C3113      H3117   1.083       .  S
C3114      O3118   1.372       .  S
O3116      H3120   0.991       .  S
O3118      H3119   0.991   1_455  S
C3121      C3122   1.406       .  A
C3121      C4342   1.410       .  A
C3122      C3123   1.399       .  A
C3122      H3127   1.084       .  S
C3123      C3124   1.410       .  A
C3123      O3128   1.371       .  S
C3124      C4341   1.407       .  A
C3125      C4340   1.407       .  A
C3125      C3126   1.401       .  A
C3125      H3129   1.083   1_565  S
C3126      C4337   1.410       .  A
C3126      O3130   1.372   1_565  S
O3128      H3132   0.990       .  S
O3130      H3131   0.988       .  S
C3133      C3134   1.405       .  A
C3133      C4354   1.413       .  A
C3134      C3135   1.401       .  A
C3134      H3139   1.084       .  S
C3135      C3136   1.413       .  A
C3135      O3140   1.372       .  S
C3136      C4353   1.403       .  A
C3137      C4352   1.403       .  A
C3137      C3138   1.397       .  A
C3137      H3141   1.083   1_565  S
C3138      C4349   1.413       .  A
C3138      O3142   1.372   1_565  S
O3140      H3144   0.992       .  S
O3142      H3143   0.992       .  S
C3145      C3150   1.412       .  A
C3146      C3147   1.406   1_554  A
C3146      H3151   1.082       .  S
C3147      C3148   1.412       .  A
C3147      O3152   1.370       .  S
C3149      C3150   1.396   1_556  A
C3149      H3153   1.083   1_565  S
C3150      O3154   1.372   1_565  S
O3152      H3156   0.992       .  S
O3154      H3155   0.992       .  S
C3157      C3162   1.413   1_655  A
C3158      C3159   1.404       .  A
C3158      H3163   1.083       .  S
C3159      C3160   1.413       .  A
C3159      O3164   1.372       .  S
C3161      C3162   1.397       .  A
C3161      H3165   1.083   1_565  S
C3162      O3166   1.372   1_565  S
O3164      H3168   0.991       .  S
O3166      H3167   0.991   1_455  S
C3169      C3170   1.407       .  A
C3169      C3174   1.414       .  A
C3170      C3171   1.406       .  A
C3170      H3175   1.083       .  S
C3171      C3172   1.414       .  A
C3171      O3176   1.370       .  S
C3172      C3173   1.403       .  A
C3173      C3174   1.398       .  A
C3173      H3177   1.083       .  S
C3174      O3178   1.372       .  S
O3176      H3180   0.992       .  S
O3178      H3179   0.992       .  S
C3181      C3182   1.405       .  A
C3181      C3186   1.412       .  A
C3182      C3183   1.400       .  A
C3182      H3187   1.084       .  S
C3183      C3184   1.411       .  A
C3183      O3188   1.370       .  S
C3184      C3185   1.404       .  A
C3185      C3186   1.398       .  A
C3185      H3189   1.083       .  S
C3186      O3190   1.372       .  S
O3188      H3192   0.992       .  S
O3190      H3191   0.992       .  S
C3193      C3194   1.406       .  A
C3193      C3198   1.410       .  A
C3194      C3195   1.401       .  A
C3194      H3199   1.083       .  S
C3195      C3196   1.412       .  A
C3195      O3200   1.371       .  S
C3196      C3197   1.405       .  A
C3197      C3198   1.397       .  A
C3197      H3201   1.083       .  S
C3198      O3202   1.370       .  S
O3200      H3204   0.992       .  S
O3202      H3203   0.992       .  S
C3205      C3206   1.407       .  A
C3205      C4426   1.413       .  A
C3206      C3207   1.406       .  A
C3206      H3211   1.083       .  S
C3207      C3208   1.414       .  A
C3207      O3212   1.372       .  S
C3208      C4425   1.405       .  A
C3209      C4424   1.405       .  A
C3209      C3210   1.399       .  A
C3209      H3213   1.083       .  S
C3210      C4421   1.413       .  A
C3210      O3214   1.372       .  S
O3212      H3216   0.992       .  S
O3214      H3215   0.992       .  S
C3217      C3222   1.414       .  A
C3218      C3219   1.405       .  A
C3218      H3223   1.083       .  S
C3219      O3224   1.370       .  S
C3220      C3221   1.404       .  A
C3221      C3222   1.400       .  A
C3221      H3225   1.083       .  S
C3222      O3226   1.372       .  S
O3224      H3228   0.991       .  S
O3226      H3227   0.992       .  S
C3229      C3234   1.411       .  A
C3230      C3231   1.402       .  A
C3230      H3235   1.083       .  S
C3231      O3236   1.371       .  S
C3232      C3233   1.405       .  A
C3233      C3234   1.398       .  A
C3233      H3237   1.083       .  S
C3234      O3238   1.370       .  S
O3236      H3240   0.991       .  S
O3238      H3239   0.992       .  S
C3241      C3246   1.411       .  A
C3242      C3243   1.398       .  A
C3242      H3247   1.084       .  S
C3243      O3248   1.372       .  S
C3244      C3245   1.405       .  A
C3245      C3246   1.401       .  A
C3245      H3249   1.084       .  S
C3246      O3250   1.370       .  S
O3248      H3252   0.992       .  S
O3250      H3251   0.991       .  S
C3253      C4474   1.412       .  A
C3254      C3255   1.407       .  A
C3254      H3259   1.083       .  S
C3255      O3260   1.371       .  S
C3256      C4473   1.405       .  A
C3257      C4472   1.405       .  A
C3257      C3258   1.400       .  A
C3257      H3261   1.084       .  S
C3258      C4469   1.412   1_545  A
C3258      O3262   1.372       .  S
O3260      H3264   0.991       .  S
O3262      H3263   0.992       .  S
C3265      C3266   1.404       .  A
C3265      C3270   1.409       .  A
C3266      C3267   1.402       .  A
C3266      H3271   1.084       .  S
C3267      C3268   1.409       .  A
C3267      O3272   1.372       .  S
C3268      C3269   1.404       .  A
C3269      C3270   1.402       .  A
C3269      H3273   1.084       .  S
C3270      O3274   1.372       .  S
O3272      H3276   0.990       .  S
O3274      H3275   0.990       .  S
C3277      C3278   1.404       .  A
C3277      C3282   1.412       .  A
C3278      C3279   1.399       .  A
C3278      H3283   1.084       .  S
C3279      C3280   1.413       .  A
C3279      O3284   1.372       .  S
C3280      C3281   1.404       .  A
C3281      C3282   1.403       .  A
C3281      H3285   1.083       .  S
C3282      O3286   1.372       .  S
O3284      H3288   0.991       .  S
O3286      H3287   0.990       .  S
C3289      C3290   1.405       .  A
C3289      C3294   1.412       .  A
C3290      C3291   1.399       .  A
C3290      H3295   1.083       .  S
C3291      C3292   1.411       .  A
C3291      O3296   1.371       .  S
C3292      C3293   1.405       .  A
C3293      C3294   1.400       .  A
C3293      H3297   1.083       .  S
C3294      O3298   1.372       .  S
O3296      H3300   0.992       .  S
O3298      H3299   0.992       .  S
C3301      C3302   1.406       .  A
C3301      C3306   1.411       .  A
C3302      C3303   1.401       .  A
C3302      H3307   1.083       .  S
C3303      C3304   1.411       .  A
C3303      O3308   1.371       .  S
C3304      C3305   1.406       .  A
C3305      C3306   1.399       .  A
C3305      H3309   1.083       .  S
C3306      O3310   1.372       .  S
O3308      H3312   0.991       .  S
O3310      H3311   0.991       .  S
C3313      C4530   1.404       .  A
C3313      C3318   1.407   1_565  A
C3314      C4529   1.404       .  A
C3314      C3315   1.404       .  A
C3314      H3319   1.084       .  S
C3315      C4532   1.410       .  A
C3315      O3320   1.372       .  S
C3316      C4531   1.410       .  A
C3316      C3317   1.407   1_565  A
C3317      C3318   1.403       .  A
C3317      H3321   1.084       .  S
C3318      O3322   1.372       .  S
O3320      H3324   0.990       .  S
O3322      H3323   0.991       .  S
C3325      C4542   1.404       .  A
C3325      C3330   1.413       .  A
C3326      C4541   1.404       .  A
C3326      C3327   1.398       .  A
C3326      H3331   1.083       .  S
C3327      C3328   1.413   1_565  A
C3327      O3332   1.372       .  S
C3328      C4545   1.407       .  A
C3329      C4544   1.407       .  A
C3329      C3330   1.405       .  A
C3329      H3333   1.083       .  S
C3330      O3334   1.371       .  S
O3332      H3336   0.991   1_565  S
O3334      H3335   0.991       .  S
C3337      C3338   1.404       .  A
C3338      C3339   1.403       .  A
C3338      H3343   1.084       .  S
C3339      C3340   1.409       .  A
C3339      O3344   1.372       .  S
C3341      C3342   1.402       .  A
C3341      H3345   1.084       .  S
C3342      O3346   1.372       .  S
O3344      H3348   0.992       .  S
O3346      H3347   0.992       .  S
C3349      C3350   1.404       .  A
C3350      C3351   1.399       .  A
C3350      H3355   1.083       .  S
C3351      C3352   1.414       .  A
C3351      O3356   1.372       .  S
C3353      C3354   1.405       .  A
C3353      H3357   1.083       .  S
C3354      O3358   1.371       .  S
O3356      H3360   0.992       .  S
O3358      H3359   0.991       .  S
C3361      C3366   1.412       .  A
C3362      C3363   1.399       .  A
C3362      H3367   1.083       .  S
C3363      O3368   1.372       .  S
C3364      C3365   1.405       .  A
C3365      C3366   1.398       .  A
C3365      H3369   1.083       .  S
C3366      O3370   1.372       .  S
O3368      H3372   0.992       .  S
O3370      H3371   0.992       .  S
C3373      C3374   1.406       .  A
C3374      C3375   1.401       .  A
C3374      H3379   1.083       .  S
C3375      C3376   1.411       .  A
C3375      O3380   1.371       .  S
C3377      C3378   1.399       .  A
C3377      H3381   1.083       .  S
C3378      O3382   1.372       .  S
O3380      H3384   0.992       .  S
O3382      H3383   0.992       .  S
C3385      C4606   1.410       .  A
C3386      C3387   1.400       .  A
C3386      H3391   1.084       .  S
C3387      O3392   1.372       .  S
C3388      C4605   1.405       .  A
C3389      C4604   1.405   1_545  A
C3389      C3390   1.405       .  A
C3389      H3393   1.084       .  S
C3390      C4601   1.410   1_545  A
C3390      O3394   1.372       .  S
O3392      H3396   0.990       .  S
O3394      H3395   0.990       .  S
C3397      C4614   1.406       .  A
C3398      C4613   1.406       .  A
C3398      C3399   1.401       .  A
C3398      H3403   1.083       .  S
C3399      C4616   1.412   1_565  A
C3399      O3404   1.372       .  S
C3400      C4615   1.412       .  A
C3401      C3402   1.406       .  A
C3401      H3405   1.083       .  S
C3402      O3406   1.371       .  S
O3404      H3408   0.990   1_565  S
O3406      H3407   0.993       .  S
C3409      C3410   1.404       .  A
C3409      C3414   1.414       .  A
C3410      C3411   1.398       .  A
C3410      H3415   1.083       .  S
C3411      C3412   1.413       .  A
C3411      O3416   1.372       .  S
C3412      C3413   1.408       .  A
C3413      C3414   1.407       .  A
C3413      H3417   1.083       .  S
C3414      O3418   1.371       .  S
O3416      H3420   0.992       .  S
O3418      H3419   0.991       .  S
C3421      C4638   1.407       .  A
C3421      C3426   1.411       .  A
C3422      C4637   1.407       .  A
C3422      C3423   1.405       .  A
C3422      H3427   1.083       .  S
C3423      C4640   1.412       .  A
C3423      O3428   1.371       .  S
C3424      C4639   1.412       .  A
C3424      C3425   1.405       .  A
C3425      C3426   1.398       .  A
C3425      H3429   1.083   1_565  S
C3426      O3430   1.372   1_565  S
O3428      H3432   0.990       .  S
O3430      H3431   0.992       .  S
C3433      C3434   1.405       .  A
C3433      C3438   1.412       .  A
C3434      C3435   1.400       .  A
C3434      H3439   1.084       .  S
C3435      C3436   1.413       .  A
C3435      O3440   1.372       .  S
C3436      C3437   1.403       .  A
C3437      C3438   1.396       .  A
C3437      H3441   1.083       .  S
C3438      O3442   1.372       .  S
O3440      H3444   0.991       .  S
O3442      H3443   0.992       .  S
C3445      C3446   1.405       .  A
C3445      C3450   1.413       .  A
C3446      C3447   1.402       .  A
C3446      H3451   1.083       .  S
C3447      C3448   1.413       .  A
C3447      O3452   1.372       .  S
C3448      C3449   1.404       .  A
C3449      C3450   1.398       .  A
C3449      H3453   1.083       .  S
C3450      O3454   1.372       .  S
O3452      H3456   0.991       .  S
O3454      H3455   0.991       .  S
C3457      C3458   1.404       .  A
C3458      C3459   1.398       .  A
C3458      H3463   1.083       .  S
C3459      C3460   1.414       .  A
C3459      O3464   1.372       .  S
C3461      C3462   1.404       .  A
C3461      H3465   1.083   1_455  S
C3462      O3466   1.370   1_455  S
O3464      H3468   0.992       .  S
O3466      H3467   0.992   1_655  S
C3469      C4686   1.406       .  A
C3469      C3474   1.411       .  A
C3470      C4685   1.406   1_545  A
C3470      C3471   1.398       .  A
C3470      H3475   1.083       .  S
C3471      C3472   1.411   1_545  A
C3471      O3476   1.371       .  S
C3472      C4689   1.407       .  A
C3473      C4688   1.407       .  A
C3473      C3474   1.399       .  A
C3473      H3477   1.083       .  S
C3474      O3478   1.372       .  S
O3476      H3480   0.992       .  S
O3478      H3479   0.992       .  S
C3481      C4698   1.407       .  A
C3481      C3486   1.410   1_565  A
C3482      C4697   1.407       .  A
C3482      C3483   1.400       .  A
C3482      H3487   1.083       .  S
C3483      C3484   1.410       .  A
C3483      O3488   1.372       .  S
C3484      C4701   1.407       .  A
C3485      C4700   1.407   1_545  A
C3485      C3486   1.399       .  A
C3485      H3489   1.083       .  S
C3486      O3490   1.371       .  S
O3488      H3492   0.991       .  S
O3490      H3491   0.992       .  S
C3493      C3498   1.411       .  A
C3494      C3495   1.400       .  A
C3494      H3499   1.083   1_565  S
C3495      O3500   1.372   1_565  S
C3496      C3497   1.406       .  A
C3497      C3498   1.403       .  A
C3497      H3501   1.083       .  S
C3498      O3502   1.370       .  S
O3500      H3504   0.992       .  S
O3502      H3503   0.992       .  S
C3505      C3506   1.406       .  A
C3505      C3510   1.411       .  A
C3506      C3507   1.402       .  A
C3506      H3511   1.084       .  S
C3507      C3508   1.406       .  A
C3507      O3512   1.372       .  S
C3508      C3509   1.404       .  A
C3509      C3510   1.403       .  A
C3509      H3513   1.084       .  S
C3510      O3514   1.372       .  S
O3512      H3516   0.992       .  S
O3514      H3515   0.992       .  S
C3517      C3518   1.406       .  A
C3517      C3522   1.414       .  A
C3518      C3519   1.403       .  A
C3518      H3523   1.083       .  S
C3519      C3520   1.413       .  A
C3519      O3524   1.371       .  S
C3520      C3521   1.407       .  A
C3521      C3522   1.403       .  A
C3521      H3525   1.083       .  S
C3522      O3526   1.372       .  S
O3524      H3528   0.991       .  S
O3526      H3527   0.992       .  S
C3529      C3530   1.405       .  A
C3529      C3534   1.412       .  A
C3530      C3531   1.399       .  A
C3530      H3535   1.083       .  S
C3531      C3532   1.412       .  A
C3531      O3536   1.372       .  S
C3532      C3533   1.405       .  A
C3533      C3534   1.398       .  A
C3533      H3537   1.083       .  S
C3534      O3538   1.372       .  S
O3536      H3540   0.992       .  S
O3538      H3539   0.992       .  S
C3541      C3542   1.405       .  A
C3541      C3546   1.412       .  A
C3542      C3543   1.399       .  A
C3542      H3547   1.083       .  S
C3543      C3544   1.411       .  A
C3543      O3548   1.371       .  S
C3544      C3545   1.406       .  A
C3545      C3546   1.401       .  A
C3545      H3549   1.083       .  S
C3546      O3550   1.372       .  S
O3548      H3552   0.991       .  S
O3550      H3551   0.992       .  S
C3553      C3688   1.483       .  S
C3553      C3554   1.406   1_565  A
C3553      C4774   1.411       .  A
C3554      C3555   1.402   1_545  A
C3554      H3559   1.084       .  S
C3555      C3556   1.407       .  A
C3555      O3560   1.372   1_565  S
C3556      C4773   1.402       .  A
C3557      C4772   1.402       .  A
C3557      C3558   1.402       .  A
C3557      H3561   1.084       .  S
C3558      C4769   1.411       .  A
C3558      O3562   1.371       .  S
O3560      H3564   0.992   1_545  S
O3562      H3563   0.992       .  S
C3565      C4782   1.406       .  A
C3565      C3570   1.413       .  A
C3566      C4781   1.406       .  A
C3566      C3567   1.400       .  A
C3566      H3571   1.083       .  S
C3567      C4784   1.413       .  A
C3567      O3572   1.372       .  S
C3568      C4783   1.413       .  A
C3568      C3569   1.407       .  A
C3569      C3570   1.405       .  A
C3569      H3573   1.083       .  S
C3570      O3574   1.371       .  S
O3572      H3576   0.992       .  S
O3574      H3575   0.991       .  S
C3577      C3578   1.406       .  A
C3578      C3579   1.403       .  A
C3578      H3583   1.084       .  S
C3579      C3580   1.407       .  A
C3579      O3584   1.372       .  S
C3581      C3582   1.399       .  A
C3581      H3585   1.084       .  S
C3582      O3586   1.372       .  S
O3584      H3588   0.990       .  S
O3586      H3587   0.990       .  S
C3589      C3594   1.413       .  A
C3590      C3591   1.407       .  A
C3590      H3595   1.083       .  S
C3591      O3596   1.371       .  S
C3592      C3593   1.404       .  A
C3593      C3594   1.398       .  A
C3593      H3597   1.083       .  S
C3594      O3598   1.372       .  S
O3596      H3600   0.991       .  S
O3598      H3599   0.992       .  S
C3601      C3602   1.404   1_655  A
C3602      C3603   1.400       .  A
C3602      H3607   1.083       .  S
C3603      O3608   1.372       .  S
C3604      C3605   1.404       .  A
C3605      C3606   1.400       .  A
C3605      H3609   1.084       .  S
C3606      O3610   1.372       .  S
O3608      H3612   0.991       .  S
O3610      H3611   0.992       .  S
C3613      C3618   1.413       .  A
C3614      C3615   1.399       .  A
C3614      H3619   1.083       .  S
C3615      C3616   1.413       .  A
C3615      O3620   1.372       .  S
C3617      C3618   1.403       .  A
C3617      H3621   1.083       .  S
C3618      O3622   1.371       .  S
O3620      H3624   0.992       .  S
O3622      H3623   0.992       .  S
C3625      C3630   1.409   1_565  A
C3626      C3627   1.402       .  A
C3626      H3631   1.084       .  S
C3627      C3628   1.406       .  A
C3627      O3632   1.372       .  S
C3629      C3630   1.400       .  A
C3629      H3633   1.084       .  S
C3630      O3634   1.372       .  S
O3632      H3636   0.992       .  S
O3634      H3635   0.992       .  S
C3637      C3638   1.407       .  A
C3638      C3639   1.405       .  A
C3638      H3643   1.083       .  S
C3639      O3644   1.371       .  S
C3640      C3641   1.407       .  A
C3641      C3642   1.400       .  A
C3641      H3645   1.083       .  S
C3642      O3646   1.372       .  S
O3644      H3648   0.991       .  S
O3646      H3647   0.992       .  S
O3650      V3657   1.900       .  S
O3651      V3657   1.904       .  S
O3651      C3661   1.265       .  A
O3652      C3662   1.264       .  A
O3654      V3658   1.899       .  S
O3656      V3658   1.903       .  S
O3656      C3659   1.265       .  A
C3659      C4841   1.478       .  S
C3660      C4853   1.491       .  S
C3661      C4829   1.488       .  S
C3662      C4820   1.482       .  S
O3663      V3671   1.905       .  S
O3664      V3671   1.912       .  S
O3665      V3671   1.894       .  S
O3665      C3675   1.263       .  A
O3666      V3671   1.896       .  S
O3666      C3676   1.264       .  A
O3667      V3672   1.903       .  S
O3668      V3672   1.909       .  S
O3669      V3672   1.895       .  S
O3669      C3674   1.264       .  A
O3670      V3672   1.897       .  S
O3670      C3673   1.263       .  A
C3673      C4793   1.476       .  S
C3674      C4805   1.491       .  S
C3675      C4832   1.489       .  S
C3676      C4817   1.482       .  S
O3678      V3685   1.906   1_565  S
O3678      C3688   1.266       .  A
O3679      V3685   1.895   1_565  S
O3679      C3689   1.264       .  A
O3680      C3690   1.265       .  A
O3681      C3690   1.265       .  A
O3682      V3686   1.899   1_565  S
O3682      C3689   1.265       .  A
O3684      V3686   1.898       .  S
O3684      C3687   1.265       .  A
V3685      V3686   2.084       .  T
C3687      C4784   1.491       .  S
C3689      C4745   1.483       .  S
C3690      C4757   1.486       .  S
O3691      V3699   1.900       .  S
O3691      C3701   1.264       .  A
O3692      V3699   1.901       .  S
O3692      C3702   1.265       .  A
O3693      V3699   1.901       .  S
O3693      C3703   1.265       .  A
O3694      V3699   1.898       .  S
O3694      C3704   1.264       .  A
O3695      V3700   1.897       .  S
O3695      C3704   1.265       .  A
O3696      V3700   1.897       .  S
O3696      C3703   1.264       .  A
O3697      V3700   1.907       .  S
O3697      C3702   1.267       .  A
O3698      V3700   1.908       .  S
O3698      C3701   1.266       .  A
V3699      V3700   2.084       .  T
C3701      C4721   1.483       .  S
C3702      C4733   1.492       .  S
C3703      C4760   1.486       .  S
C3704      C4748   1.483       .  S
O3706      V3713   1.897       .  S
O3707      V3713   1.905       .  S
O3707      C3717   1.267       .  A
O3708      C3718   1.265       .  A
O3710      V3714   1.892       .  S
O3712      V3714   1.904       .  S
O3712      C3715   1.265       .  A
C3715      C4844   1.473       .  S
C3716      C4712   1.489       .  S
C3717      C4697   1.485       .  S
C3718      C4688   1.483       .  S
O3720      V3727   1.912       .  S
O3720      C3730   1.268       .  A
O3721      V3727   1.891       .  S
O3721      C3731   1.263       .  A
O3722      C3732   1.263       .  A
O3723      C3732   1.266       .  A
O3724      V3728   1.906       .  S
O3724      C3731   1.267       .  A
O3726      V3728   1.891       .  S
O3726      C3729   1.262       .  A
V3727      V3728   2.084       .  T
C3729      C4796   1.476       .  S
C3730      C4676   1.489       .  S
C3731      C4661   1.486       .  S
C3732      C4652   1.482       .  S
O3733      V3741   1.910       .  S
O3734      V3741   1.906       .  S
O3735      V3741   1.900       .  S
O3735      C3745   1.265       .  A
O3736      V3741   1.904       .  S
O3736      C3746   1.266       .  A
O3737      V3742   1.893       .  S
O3738      V3742   1.894       .  S
O3739      V3742   1.897       .  S
O3739      C3744   1.263       .  A
O3740      V3742   1.896       .  S
O3740      C3743   1.265       .  A
C3743      C4640   1.488       .  S
C3744      C4772   1.473       .  S
C3745      C4685   1.482       .  S
C3746      C4700   1.485       .  S
O3747      V3755   1.898       .  S
O3747      C3757   1.266       .  A
O3748      V3755   1.900       .  S
O3748      C3758   1.264       .  A
O3749      V3755   1.890       .  S
O3749      C3759   1.263       .  A
O3750      V3755   1.899       .  S
O3750      C3760   1.264       .  A
O3751      V3756   1.900       .  S
O3751      C3760   1.266       .  A
O3752      V3756   1.902       .  S
O3752      C3759   1.266       .  A
O3753      V3756   1.906       .  S
O3753      C3758   1.266       .  A
O3754      V3756   1.909       .  S
O3754      C3757   1.266       .  A
V3755      V3756   2.084       .  T
C3757      C4625   1.491       .  S
C3758      C4724   1.476       .  S
C3759      C4649   1.482       .  S
C3760      C4664   1.486       .  S
O3762      V3769   1.901       .  S
O3763      V3769   1.896   1_565  S
O3763      C3773   1.265       .  A
O3764      C3774   1.265       .  A
O3766      V3770   1.899   1_565  S
O3768      V3770   1.903       .  S
O3768      C3771   1.266       .  A
C3771      C4616   1.493       .  S
C3772      C4604   1.479   1_545  S
C3773      C4580   1.483       .  S
C3774      C4589   1.484       .  S
O3775      V3783   1.904       .  S
O3776      V3783   1.901       .  S
O3777      V3783   1.902       .  S
O3777      C3787   1.265       .  A
O3778      V3783   1.897       .  S
O3778      C3788   1.264       .  A
O3779      V3784   1.898       .  S
O3780      V3784   1.896       .  S
O3781      V3784   1.906       .  S
O3781      C3786   1.265       .  A
O3782      V3784   1.903       .  S
O3782      C3785   1.267       .  A
C3785      C4565   1.490       .  S
C3786      C4553   1.480       .  S
C3787      C4592   1.485       .  S
C3788      C4577   1.483       .  S
O3790      V3797   1.911       .  S
O3790      C3800   1.267       .  A
O3791      V3797   1.896       .  S
O3791      C3801   1.264       .  A
O3792      C3802   1.264       .  A
O3793      C3802   1.265       .  A
O3794      V3798   1.905       .  S
O3794      C3801   1.266       .  A
O3796      V3798   1.895       .  S
O3796      C3799   1.264       .  A
V3797      V3798   2.083       .  T
C3799      C4544   1.489       .  S
C3800      C4529   1.480       .  S
C3801      C4520   1.486       .  S
C3802      C4505   1.484       .  S
O3803      V3811   1.902       .  S
O3803      C3813   1.265       .  A
O3804      V3811   1.901       .  S
O3804      C3814   1.266       .  A
O3805      V3811   1.900       .  S
O3805      C3815   1.265       .  A
O3806      V3811   1.900       .  S
O3806      C3816   1.265       .  A
O3807      V3812   1.900       .  S
O3807      C3816   1.265       .  A
O3808      V3812   1.898       .  S
O3808      C3815   1.265       .  A
O3809      V3812   1.900       .  S
O3809      C3814   1.264       .  A
O3810      V3812   1.902       .  S
O3810      C3813   1.265       .  A
V3811      V3812   2.085       .  T
C3813      C4481   1.478       .  S
C3814      C4493   1.484       .  S
C3815      C4508   1.484       .  S
C3816      C4517   1.485       .  S
O3818      V3825   1.911       .  S
O3819      V3825   1.898       .  S
O3819      C3829   1.265       .  A
O3820      C3830   1.264       .  A
O3822      V3826   1.901       .  S
O3824      V3826   1.899       .  S
O3824      C3827   1.265       .  A
C3827      C4469   1.491       .  S
C3828      C4613   1.493       .  S
C3829      C4448   1.486       .  S
C3830      C4457   1.480       .  S
O3831      V3839   1.913       .  S
O3832      V3839   1.913       .  S
O3833      V3839   1.902       .  S
O3833      C3843   1.265       .  A
O3834      V3839   1.897       .  S
O3834      C3844   1.264       .  A
O3835      V3840   1.900       .  S
O3836      V3840   1.897       .  S
O3837      V3840   1.893       .  S
O3837      C3842   1.263       .  A
O3838      V3840   1.894       .  S
O3838      C3841   1.263       .  A
C3841      C4433   1.491       .  S
C3842      C4568   1.490       .  S
C3843      C4460   1.481       .  S
C3844      C4445   1.485       .  S
O3846      V3853   1.907       .  S
O3846      C3856   1.266       .  A
O3847      V3853   1.900       .  S
O3847      C3857   1.265       .  A
O3848      C3858   1.265       .  A
O3849      C3858   1.264       .  A
O3850      V3854   1.895       .  S
O3850      C3857   1.263       .  A
O3852      V3854   1.898       .  S
O3852      C3855   1.266       .  A
V3853      V3854   2.084       .  T
C3855      C4541   1.488       .  S
C3856      C4424   1.491       .  S
C3857      C4397   1.484       .  S
C3858      C4409   1.484       .  S
O3859      V3867   1.891       .  S
O3859      C3869   1.263       .  A
O3860      V3867   1.890       .  S
O3860      C3870   1.262       .  A
O3861      V3867   1.900       .  S
O3861      C3871   1.265       .  A
O3862      V3867   1.898       .  S
O3862      C3872   1.265       .  A
O3863      V3868   1.897       .  S
O3863      C3872   1.264       .  A
O3864      V3868   1.895       .  S
O3864      C3871   1.264       .  A
O3865      V3868   1.911       .  S
O3865      C3870   1.268       .  A
O3866      V3868   1.914       .  S
O3866      C3869   1.268       .  A
V3867      V3868   2.084       .  T
C3869      C4385   1.491       .  S
C3870      C4496   1.484       .  S
C3871      C4412   1.484       .  S
C3872      C4400   1.484       .  S
O3874      V3881   1.909       .  S
O3875      V3881   1.905       .  S
O3875      C3885   1.266       .  A
O3876      C3886   1.266       .  A
O3878      V3882   1.894       .  S
O3880      V3882   1.892       .  S
O3880      C3883   1.263   1_655  A
C3883      C4361   1.489       .  S
C3884      C4373   1.487       .  S
C3885      C4340   1.484       .  S
C3886      C4349   1.483       .  S
O3888      V3895   1.906       .  S
O3888      C3898   1.266       .  A
O3889      V3895   1.897       .  S
O3889      C3899   1.264       .  A
O3890      C3900   1.264       .  A
O3891      C3900   1.265       .  A
O3892      V3896   1.902       .  S
O3892      C3899   1.265       .  A
O3894      V3896   1.894       .  S
O3894      C3897   1.264       .  A
V3895      V3896   2.085       .  T
C3897      C4313   1.489       .  S
C3898      C4325   1.487       .  S
C3899      C4301   1.484       .  S
C3900      C4289   1.483       .  S
O3901      V3909   1.907       .  S
O3902      V3909   1.907       .  S
O3903      V3909   1.894       .  S
O3903      C3913   1.264       .  A
O3904      V3909   1.894       .  S
O3904      C3914   1.263       .  A
O3905      V3910   1.901       .  S
O3906      V3910   1.905       .  S
O3907      V3910   1.895       .  S
O3907      C3912   1.263       .  A
O3908      V3910   1.894       .  S
O3908      C3911   1.263       .  A
C3911      C4277   1.488       .  S
C3912      C4268   1.486       .  S
C3913      C4337   1.484       .  S
C3914      C4352   1.482       .  S
O3915      V3923   1.902       .  S
O3915      C3925   1.266       .  A
O3916      V3923   1.900       .  S
O3916      C3926   1.265       .  A
O3917      V3923   1.895       .  S
O3917      C3927   1.264       .  A
O3918      V3923   1.899       .  S
O3918      C3928   1.264       .  A
O3919      V3924   1.899       .  S
O3919      C3928   1.266       .  A
O3920      V3924   1.905       .  S
O3920      C3927   1.266       .  A
O3921      V3924   1.904       .  S
O3921      C3926   1.265       .  A
O3922      V3924   1.901       .  S
O3922      C3925   1.265       .  A
V3923      V3924   2.084       .  T
C3925      C4253   1.485       .  S
C3926      C4241   1.484       .  S
C3927      C4292   1.484       .  S
C3928      C4304   1.484       .  S
O3930      V3937   1.904       .  S
O3931      V3937   1.900       .  S
O3931      C3941   1.265       .  A
O3932      C3942   1.266       .  A
O3934      V3938   1.896       .  S
O3936      V3938   1.903       .  S
O3936      C3939   1.265       .  A
C3939      C4376   1.486       .  S
C3940      C4601   1.479       .  S
C3941      C4229   1.485       .  S
C3942      C4217   1.482       .  S
O3944      V3951   1.903       .  S
O3944      C3954   1.265       .  A
O3945      V3951   1.904       .  S
O3945      C3955   1.266       .  A
O3946      C3956   1.265       .  A
O3947      C3956   1.264       .  A
O3948      V3952   1.894       .  S
O3948      C3955   1.264       .  A
O3950      V3952   1.901       .  S
O3950      C3953   1.265       .  A
V3951      V3952   2.084       .  T
C3953      C4328   1.488       .  S
C3954      C4556   1.477       .  S
C3955      C4205   1.486       .  S
C3956      C4193   1.484       .  S
O3957      V3965   1.907       .  S
O3958      V3965   1.906       .  S
O3959      V3965   1.901       .  S
O3959      C3969   1.266       .  A
O3960      V3965   1.900       .  S
O3960      C3970   1.265       .  A
O3961      V3966   1.898       .  S
O3962      V3966   1.895       .  S
O3963      V3966   1.898       .  S
O3963      C3968   1.265       .  A
O3964      V3966   1.904       .  S
O3964      C3967   1.265       .  A
C3967      C4532   1.485       .  S
C3968      C4280   1.489       .  S
C3969      C4220   1.482       .  S
C3970      C4232   1.485       .  S
O3971      V3979   1.902       .  S
O3971      C3981   1.264       .  A
O3972      V3979   1.900       .  S
O3972      C3982   1.265       .  A
O3973      V3979   1.902       .  S
O3973      C3983   1.267       .  A
O3974      V3979   1.900       .  S
O3974      C3984   1.265       .  A
O3975      V3980   1.898       .  S
O3975      C3984   1.265       .  A
O3976      V3980   1.892       .  S
O3976      C3983   1.263       .  A
O3977      V3980   1.903       .  S
O3977      C3982   1.266       .  A
O3978      V3980   1.904       .  S
O3978      C3981   1.265       .  A
V3979      V3980   2.085       .  T
C3981      C4484   1.477       .  S
C3982      C4256   1.484       .  S
C3983      C4196   1.483       .  S
C3984      C4208   1.485       .  S
O3986      V3993   1.892       .  S
O3987      V3993   1.898       .  S
O3987      C3997   1.265       .  A
O3988      C3998   1.266       .  A
O3990      V3994   1.896       .  S
O3992      V3994   1.909       .  S
O3992      C3995   1.267       .  A
C3995      C4709   1.488       .  S
C3996      C4364   1.489       .  S
C3997      C4184   1.482       .  S
C3998      C4169   1.485       .  S
O4000      V4007   1.905       .  S
O4000      C4010   1.266       .  A
O4001      V4007   1.898       .  S
O4001      C4011   1.265       .  A
O4002      C4012   1.265       .  A
O4003      C4012   1.264       .  A
O4004      V4008   1.898       .  S
O4004      C4011   1.264       .  A
O4006      V4008   1.898       .  S
O4006      C4009   1.265       .  A
V4007      V4008   2.084       .  T
C4009      C4673   1.489       .  S
C4010      C4316   1.488       .  S
C4011      C4157   1.484       .  S
C4012      C4145   1.483       .  S
O4013      V4021   1.906       .  S
O4014      V4021   1.908       .  S
O4015      V4021   1.899       .  S
O4015      C4025   1.265       .  A
O4016      V4021   1.898       .  S
O4016      C4026   1.265       .  A
O4017      V4022   1.896       .  S
O4018      V4022   1.898       .  S
O4019      V4022   1.896       .  S
O4019      C4024   1.264       .  A
O4020      V4022   1.896       .  S
O4020      C4023   1.264       .  A
C4023      C4265   1.486       .  S
C4024      C4637   1.487       .  S
C4025      C4172   1.484       .  S
C4026      C4181   1.482       .  S
O4027      V4035   1.894       .  S
O4027      C4037   1.263       .  A
O4028      V4035   1.894       .  S
O4028      C4038   1.264       .  A
O4029      V4035   1.897       .  S
O4029      C4039   1.264       .  A
O4030      V4035   1.898       .  S
O4030      C4040   1.265       .  A
O4031      V4036   1.899       .  S
O4031      C4040   1.264       .  A
O4032      V4036   1.897       .  S
O4032      C4039   1.264       .  A
O4033      V4036   1.912       .  S
O4033      C4038   1.268       .  A
O4034      V4036   1.910       .  S
O4034      C4037   1.267       .  A
V4035      V4036   2.084       .  T
C4037      C4244   1.483       .  S
C4038      C4628   1.491       .  S
C4039      C4148   1.483       .  S
C4040      C4160   1.484       .  S
O4042      V4049   1.912       .  S
O4043      V4049   1.895   1_565  S
O4043      C4053   1.263       .  A
O4044      C4054   1.264       .  A
O4046      V4050   1.900   1_565  S
O4048      V4050   1.899       .  S
O4048      C4051   1.265       .  A
C4051      C4856   1.492       .  S
C4052      C4472   1.490       .  S
C4053      C4121   1.484       .  S
C4054      C4133   1.484       .  S
O4055      V4063   1.909       .  S
O4056      V4063   1.908       .  S
O4057      V4063   1.898       .  S
O4057      C4067   1.265       .  A
O4058      V4063   1.902       .  S
O4058      C4068   1.266       .  A
O4059      V4064   1.895       .  S
O4060      V4064   1.895       .  S
O4061      V4064   1.900       .  S
O4061      C4066   1.265       .  A
O4062      V4064   1.898       .  S
O4062      C4065   1.266       .  A
C4065      C4808   1.491       .  S
C4066      C4436   1.490       .  S
C4067      C4136   1.483       .  S
C4068      C4124   1.484       .  S
O4070      V4077   1.908       .  S
O4070      C4080   1.266       .  A
O4071      V4077   1.900       .  S
O4071      C4081   1.265       .  A
O4072      C4082   1.265       .  A
O4073      C4082   1.263       .  A
O4074      V4078   1.896       .  S
O4074      C4081   1.264       .  A
O4076      V4078   1.897       .  S
O4076      C4079   1.265       .  A
V4077      V4078   2.084       .  T
C4079      C4421   1.491       .  S
C4080      C4781   1.492   1_565  S
C4081      C4097   1.484       .  S
C4082      C4109   1.483       .  S
O4083      V4091   1.907       .  S
O4083      C4093   1.266       .  A
O4084      V4091   1.906       .  S
O4084      C4094   1.266       .  A
O4085      V4091   1.895       .  S
O4085      C4095   1.263       .  A
O4086      V4091   1.896       .  S
O4086      C4096   1.264       .  A
O4087      V4092   1.901       .  S
O4087      C4096   1.265       .  A
O4088      V4092   1.899       .  S
O4088      C4095   1.266       .  A
O4089      V4092   1.903       .  S
O4089      C4094   1.266       .  A
O4090      V4092   1.899       .  S
O4090      C4093   1.266       .  A
V4091      V4092   2.084       .  T
C4093      C4388   1.491       .  S
C4094      C4736   1.492       .  S
C4095      C4112   1.483       .  S
C4096      C4100   1.484       .  S
C4097      C4098   1.406       .  A
C4097      C4102   1.411       .  A
C4098      C4099   1.400       .  A
C4098      H4103   1.083       .  S
C4099      C4100   1.411       .  A
C4099      O4104   1.372       .  S
C4100      C4101   1.406       .  A
C4101      C4102   1.399       .  A
C4101      H4105   1.083       .  S
C4102      O4106   1.371       .  S
O4104      H4108   0.991       .  S
O4106      H4107   0.991       .  S
C4109      C4110   1.405       .  A
C4109      C4114   1.412       .  A
C4110      C4111   1.400       .  A
C4110      H4115   1.084       .  S
C4111      C4112   1.413       .  A
C4111      O4116   1.372       .  S
C4112      C4113   1.404       .  A
C4113      C4114   1.398       .  A
C4113      H4117   1.083       .  S
C4114      O4118   1.372       .  S
O4116      H4120   0.992       .  S
O4118      H4119   0.992       .  S
C4121      C4126   1.412       .  A
C4122      C4123   1.398       .  A
C4122      H4127   1.083       .  S
C4123      O4128   1.371       .  S
C4124      C4125   1.405       .  A
C4125      C4126   1.400       .  A
C4125      H4129   1.084       .  S
C4126      O4130   1.371       .  S
O4128      H4132   0.992       .  S
O4130      H4131   0.992       .  S
C4133      C4138   1.412       .  A
C4134      C4135   1.400       .  A
C4134      H4139   1.083       .  S
C4135      O4140   1.372       .  S
C4136      C4137   1.404       .  A
C4137      C4138   1.398       .  A
C4137      H4141   1.083       .  S
C4138      O4142   1.372       .  S
O4140      H4144   0.992       .  S
O4142      H4143   0.992       .  S
C4145      C4146   1.405       .  A
C4145      C4150   1.411       .  A
C4146      C4147   1.398       .  A
C4146      H4151   1.082       .  S
C4147      C4148   1.411       .  A
C4147      O4152   1.371       .  S
C4148      C4149   1.406       .  A
C4149      C4150   1.399       .  A
C4149      H4153   1.083       .  S
C4150      O4154   1.372       .  S
O4152      H4156   0.992       .  S
O4154      H4155   0.992       .  S
C4157      C4158   1.405       .  A
C4157      C4162   1.411       .  A
C4158      C4159   1.400       .  A
C4158      H4163   1.083       .  S
C4159      C4160   1.412       .  A
C4159      O4164   1.371       .  S
C4160      C4161   1.405       .  A
C4161      C4162   1.399       .  A
C4161      H4165   1.083       .  S
C4162      O4166   1.372       .  S
O4164      H4168   0.992       .  S
O4166      H4167   0.992       .  S
C4169      C4170   1.405       .  A
C4170      C4171   1.400       .  A
C4170      H4175   1.083       .  S
C4171      O4176   1.372       .  S
C4172      C4173   1.404       .  A
C4173      C4174   1.399       .  A
C4173      H4177   1.083       .  S
C4174      O4178   1.371       .  S
O4176      H4180   0.992       .  S
O4178      H4179   0.991       .  S
C4181      C4182   1.405       .  A
C4182      C4183   1.399       .  A
C4182      H4187   1.083       .  S
C4183      O4188   1.372       .  S
C4184      C4185   1.404       .  A
C4185      C4186   1.398       .  A
C4185      H4189   1.083       .  S
C4186      O4190   1.372       .  S
O4188      H4192   0.991       .  S
O4190      H4191   0.992       .  S
C4193      C4194   1.405       .  A
C4193      C4198   1.412       .  A
C4194      C4195   1.399       .  A
C4194      H4199   1.083       .  S
C4195      C4196   1.413       .  A
C4195      O4200   1.372       .  S
C4196      C4197   1.404       .  A
C4197      C4198   1.399       .  A
C4197      H4201   1.083       .  S
C4198      O4202   1.372       .  S
O4200      H4204   0.992       .  S
O4202      H4203   0.992       .  S
C4205      C4206   1.407       .  A
C4205      C4210   1.411       .  A
C4206      C4207   1.400       .  A
C4206      H4211   1.083       .  S
C4207      C4208   1.411       .  A
C4207      O4212   1.372       .  S
C4208      C4209   1.406       .  A
C4209      C4210   1.400       .  A
C4209      H4213   1.083       .  S
C4210      O4214   1.371       .  S
O4212      H4216   0.992       .  S
O4214      H4215   0.992       .  S
C4217      C4218   1.404       .  A
C4218      C4219   1.400       .  A
C4218      H4223   1.083       .  S
C4219      O4224   1.372       .  S
C4220      C4221   1.403       .  A
C4221      C4222   1.398       .  A
C4221      H4225   1.083       .  S
C4222      O4226   1.372       .  S
O4224      H4228   0.992       .  S
O4226      H4227   0.992       .  S
C4229      C4234   1.411       .  A
C4230      C4231   1.400       .  A
C4230      H4235   1.083       .  S
C4231      C4232   1.411       .  A
C4231      O4236   1.372       .  S
C4233      C4234   1.399       .  A
C4233      H4237   1.083       .  S
C4234      O4238   1.372       .  S
O4236      H4240   0.992       .  S
O4238      H4239   0.992       .  S
C4241      C4242   1.403       .  A
C4241      C4246   1.412       .  A
C4242      C4243   1.398   1_554  A
C4242      H4247   1.084       .  S
C4243      C4244   1.411       .  A
C4243      O4248   1.372       .  S
C4244      C4245   1.405       .  A
C4245      C4246   1.404   1_556  A
C4245      H4249   1.083       .  S
C4246      O4250   1.372       .  S
O4248      H4252   0.992       .  S
O4250      H4251   0.992       .  S
C4253      C4254   1.405       .  A
C4253      C4258   1.412       .  A
C4254      C4255   1.401       .  A
C4254      H4259   1.083       .  S
C4255      C4256   1.411       .  A
C4255      O4260   1.372       .  S
C4256      C4257   1.405       .  A
C4257      C4258   1.401       .  A
C4257      H4261   1.084       .  S
C4258      O4262   1.372       .  S
O4260      H4264   0.991       .  S
O4262      H4263   0.992       .  S
C4265      C4266   1.405       .  A
C4266      C4267   1.399   1_556  A
C4266      H4271   1.084       .  S
C4267      C4268   1.412       .  A
C4267      O4272   1.372       .  S
C4269      C4270   1.402   1_554  A
C4269      H4273   1.083       .  S
C4270      O4274   1.371       .  S
O4272      H4276   0.990       .  S
O4274      H4275   0.990       .  S
C4277      C4282   1.413       .  A
C4278      C4279   1.404       .  A
C4278      H4283   1.083       .  S
C4279      O4284   1.371       .  S
C4280      C4281   1.405       .  A
C4281      C4282   1.398       .  A
C4281      H4285   1.083       .  S
C4282      O4286   1.372       .  S
O4284      H4288   0.991       .  S
O4286      H4287   0.992       .  S
C4289      C4290   1.403       .  A
C4289      C4294   1.412       .  A
C4290      C4291   1.397       .  A
C4290      H4295   1.083       .  S
C4291      C4292   1.411       .  A
C4291      O4296   1.371       .  S
C4292      C4293   1.406       .  A
C4293      C4294   1.403       .  A
C4293      H4297   1.084       .  S
C4294      O4298   1.371       .  S
O4296      H4300   0.992       .  S
O4298      H4299   0.992       .  S
C4301      C4302   1.406       .  A
C4301      C4306   1.412       .  A
C4302      C4303   1.402       .  A
C4302      H4307   1.083       .  S
C4303      C4304   1.413       .  A
C4303      O4308   1.372       .  S
C4304      C4305   1.404       .  A
C4305      C4306   1.398       .  A
C4305      H4309   1.083       .  S
C4306      O4310   1.372       .  S
O4308      H4312   0.992       .  S
O4310      H4311   0.992       .  S
C4313      C4318   1.411       .  A
C4314      C4315   1.398   1_554  A
C4314      H4319   1.083       .  S
C4315      O4320   1.372       .  S
C4316      C4317   1.406       .  A
C4317      C4318   1.404   1_556  A
C4317      H4321   1.082       .  S
C4318      O4322   1.371       .  S
O4320      H4324   0.991       .  S
O4322      H4323   0.992       .  S
C4325      C4326   1.406       .  A
C4326      C4327   1.400       .  A
C4326      H4331   1.083       .  S
C4327      C4328   1.412       .  A
C4327      O4332   1.372       .  S
C4329      C4330   1.402       .  A
C4329      H4333   1.083       .  S
C4330      O4334   1.372       .  S
O4332      H4336   0.991       .  S
O4334      H4335   0.991   1_455  S
C4337      C4338   1.406       .  A
C4338      C4339   1.399       .  A
C4338      H4343   1.084       .  S
C4339      C4340   1.410       .  A
C4339      O4344   1.371       .  S
C4341      C4342   1.401       .  A
C4341      H4345   1.083       .  S
C4342      O4346   1.372       .  S
O4344      H4348   0.990       .  S
O4346      H4347   0.988       .  S
C4349      C4350   1.405       .  A
C4350      C4351   1.401       .  A
C4350      H4355   1.084       .  S
C4351      C4352   1.413       .  A
C4351      O4356   1.372       .  S
C4353      C4354   1.397       .  A
C4353      H4357   1.083       .  S
C4354      O4358   1.372       .  S
O4356      H4360   0.992       .  S
O4358      H4359   0.992       .  S
C4361      C4366   1.412       .  A
C4362      C4363   1.406   1_554  A
C4362      H4367   1.082       .  S
C4363      C4364   1.412       .  A
C4363      O4368   1.370       .  S
C4365      C4366   1.396   1_556  A
C4365      H4369   1.083       .  S
C4366      O4370   1.372       .  S
O4368      H4372   0.992       .  S
O4370      H4371   0.992       .  S
C4373      C4378   1.413   1_655  A
C4374      C4375   1.404       .  A
C4374      H4379   1.083       .  S
C4375      C4376   1.413       .  A
C4375      O4380   1.372       .  S
C4377      C4378   1.397       .  A
C4377      H4381   1.083       .  S
C4378      O4382   1.372       .  S
O4380      H4384   0.991       .  S
O4382      H4383   0.991   1_455  S
C4385      C4386   1.407       .  A
C4385      C4390   1.414       .  A
C4386      C4387   1.406       .  A
C4386      H4391   1.083       .  S
C4387      C4388   1.414       .  A
C4387      O4392   1.370       .  S
C4388      C4389   1.403       .  A
C4389      C4390   1.398       .  A
C4389      H4393   1.083       .  S
C4390      O4394   1.372       .  S
O4392      H4396   0.992       .  S
O4394      H4395   0.992       .  S
C4397      C4398   1.405       .  A
C4397      C4402   1.412       .  A
C4398      C4399   1.400       .  A
C4398      H4403   1.084       .  S
C4399      C4400   1.411       .  A
C4399      O4404   1.370       .  S
C4400      C4401   1.404       .  A
C4401      C4402   1.398       .  A
C4401      H4405   1.083       .  S
C4402      O4406   1.372       .  S
O4404      H4408   0.992       .  S
O4406      H4407   0.992       .  S
C4409      C4410   1.406       .  A
C4409      C4414   1.410       .  A
C4410      C4411   1.401       .  A
C4410      H4415   1.083       .  S
C4411      C4412   1.412       .  A
C4411      O4416   1.371       .  S
C4412      C4413   1.405       .  A
C4413      C4414   1.397       .  A
C4413      H4417   1.083       .  S
C4414      O4418   1.370       .  S
O4416      H4420   0.992       .  S
O4418      H4419   0.992       .  S
C4421      C4422   1.407       .  A
C4422      C4423   1.406       .  A
C4422      H4427   1.083       .  S
C4423      C4424   1.414       .  A
C4423      O4428   1.372       .  S
C4425      C4426   1.399       .  A
C4425      H4429   1.083       .  S
C4426      O4430   1.372       .  S
O4428      H4432   0.992   1_565  S
O4430      H4431   0.992       .  S
C4433      C4438   1.414       .  A
C4434      C4435   1.405       .  A
C4434      H4439   1.083       .  S
C4435      O4440   1.370       .  S
C4436      C4437   1.404       .  A
C4437      C4438   1.400       .  A
C4437      H4441   1.083       .  S
C4438      O4442   1.372       .  S
O4440      H4444   0.991       .  S
O4442      H4443   0.992       .  S
C4445      C4450   1.411       .  A
C4446      C4447   1.402       .  A
C4446      H4451   1.083       .  S
C4447      O4452   1.371       .  S
C4448      C4449   1.405       .  A
C4449      C4450   1.398       .  A
C4449      H4453   1.083       .  S
C4450      O4454   1.370       .  S
O4452      H4456   0.991       .  S
O4454      H4455   0.992       .  S
C4457      C4462   1.411       .  A
C4458      C4459   1.398       .  A
C4458      H4463   1.084       .  S
C4459      O4464   1.372       .  S
C4460      C4461   1.405       .  A
C4461      C4462   1.401       .  A
C4461      H4465   1.084       .  S
C4462      O4466   1.370       .  S
O4464      H4468   0.992       .  S
O4466      H4467   0.991       .  S
C4470      C4471   1.407       .  A
C4470      H4475   1.083       .  S
C4471      O4476   1.371       .  S
C4473      C4474   1.400       .  A
C4473      H4477   1.084       .  S
C4474      O4478   1.372       .  S
O4476      H4480   0.991   1_565  S
O4478      H4479   0.992       .  S
C4481      C4482   1.404       .  A
C4481      C4486   1.409       .  A
C4482      C4483   1.402       .  A
C4482      H4487   1.084       .  S
C4483      C4484   1.409       .  A
C4483      O4488   1.372       .  S
C4484      C4485   1.404       .  A
C4485      C4486   1.402       .  A
C4485      H4489   1.084       .  S
C4486      O4490   1.372       .  S
O4488      H4492   0.990       .  S
O4490      H4491   0.990       .  S
C4493      C4494   1.404       .  A
C4493      C4498   1.412       .  A
C4494      C4495   1.399       .  A
C4494      H4499   1.084       .  S
C4495      C4496   1.413       .  A
C4495      O4500   1.372       .  S
C4496      C4497   1.404       .  A
C4497      C4498   1.403       .  A
C4497      H4501   1.083       .  S
C4498      O4502   1.372       .  S
O4500      H4504   0.991       .  S
O4502      H4503   0.990       .  S
C4505      C4506   1.405       .  A
C4505      C4510   1.412       .  A
C4506      C4507   1.399       .  A
C4506      H4511   1.083       .  S
C4507      C4508   1.411       .  A
C4507      O4512   1.371       .  S
C4508      C4509   1.405       .  A
C4509      C4510   1.400       .  A
C4509      H4513   1.083       .  S
C4510      O4514   1.372       .  S
O4512      H4516   0.992       .  S
O4514      H4515   0.992       .  S
C4517      C4518   1.406       .  A
C4517      C4522   1.411       .  A
C4518      C4519   1.401       .  A
C4518      H4523   1.083       .  S
C4519      C4520   1.411       .  A
C4519      O4524   1.371       .  S
C4520      C4521   1.406       .  A
C4521      C4522   1.399       .  A
C4521      H4525   1.083       .  S
C4522      O4526   1.372       .  S
O4524      H4528   0.991       .  S
O4526      H4527   0.991       .  S
C4529      C4534   1.407       .  A
C4530      C4531   1.404       .  A
C4530      H4535   1.084       .  S
C4531      O4536   1.372       .  S
C4532      C4533   1.407       .  A
C4533      C4534   1.403       .  A
C4533      H4537   1.084       .  S
C4534      O4538   1.372       .  S
O4536      H4540   0.990       .  S
O4538      H4539   0.991       .  S
C4541      C4546   1.413   1_565  A
C4542      C4543   1.398       .  A
C4542      H4547   1.083       .  S
C4543      C4544   1.413       .  A
C4543      O4548   1.372       .  S
C4545      C4546   1.405       .  A
C4545      H4549   1.083       .  S
C4546      O4550   1.371       .  S
O4548      H4552   0.991       .  S
O4550      H4551   0.991   1_545  S
C4553      C4554   1.404       .  A
C4554      C4555   1.403       .  A
C4554      H4559   1.084       .  S
C4555      C4556   1.409       .  A
C4555      O4560   1.372       .  S
C4557      C4558   1.402       .  A
C4557      H4561   1.084       .  S
C4558      O4562   1.372       .  S
O4560      H4564   0.992       .  S
O4562      H4563   0.992       .  S
C4565      C4566   1.404       .  A
C4566      C4567   1.399       .  A
C4566      H4571   1.083       .  S
C4567      C4568   1.414       .  A
C4567      O4572   1.372       .  S
C4569      C4570   1.405       .  A
C4569      H4573   1.083       .  S
C4570      O4574   1.371       .  S
O4572      H4576   0.992       .  S
O4574      H4575   0.991       .  S
C4577      C4582   1.412       .  A
C4578      C4579   1.399       .  A
C4578      H4583   1.083       .  S
C4579      O4584   1.372       .  S
C4580      C4581   1.405       .  A
C4581      C4582   1.398       .  A
C4581      H4585   1.083       .  S
C4582      O4586   1.372       .  S
O4584      H4588   0.992       .  S
O4586      H4587   0.992       .  S
C4589      C4590   1.406       .  A
C4590      C4591   1.401       .  A
C4590      H4595   1.083       .  S
C4591      C4592   1.411       .  A
C4591      O4596   1.371       .  S
C4593      C4594   1.399       .  A
C4593      H4597   1.083       .  S
C4594      O4598   1.372       .  S
O4596      H4600   0.992       .  S
O4598      H4599   0.992       .  S
C4602      C4603   1.400       .  A
C4602      H4607   1.084       .  S
C4603      O4608   1.372       .  S
C4605      C4606   1.405       .  A
C4605      H4609   1.084       .  S
C4606      O4610   1.372       .  S
O4608      H4612   0.990       .  S
O4610      H4611   0.990       .  S
C4614      C4615   1.401       .  A
C4614      H4619   1.083       .  S
C4615      O4620   1.372       .  S
C4617      C4618   1.406       .  A
C4617      H4621   1.083       .  S
C4618      O4622   1.371       .  S
O4620      H4624   0.990       .  S
O4622      H4623   0.993   1_545  S
C4625      C4626   1.404       .  A
C4625      C4630   1.414       .  A
C4626      C4627   1.398       .  A
C4626      H4631   1.083       .  S
C4627      C4628   1.413       .  A
C4627      O4632   1.372       .  S
C4628      C4629   1.408       .  A
C4629      C4630   1.407       .  A
C4629      H4633   1.083       .  S
C4630      O4634   1.371       .  S
O4632      H4636   0.992       .  S
O4634      H4635   0.991       .  S
C4637      C4642   1.411       .  A
C4638      C4639   1.405       .  A
C4638      H4643   1.083       .  S
C4639      O4644   1.371       .  S
C4640      C4641   1.405       .  A
C4641      C4642   1.398       .  A
C4641      H4645   1.083       .  S
C4642      O4646   1.372       .  S
O4644      H4648   0.990       .  S
O4646      H4647   0.992       .  S
C4649      C4650   1.405       .  A
C4649      C4654   1.412       .  A
C4650      C4651   1.400       .  A
C4650      H4655   1.084       .  S
C4651      C4652   1.413       .  A
C4651      O4656   1.372       .  S
C4652      C4653   1.403       .  A
C4653      C4654   1.396       .  A
C4653      H4657   1.083       .  S
C4654      O4658   1.372       .  S
O4656      H4660   0.991       .  S
O4658      H4659   0.992       .  S
C4661      C4662   1.405       .  A
C4661      C4666   1.413       .  A
C4662      C4663   1.402       .  A
C4662      H4667   1.083       .  S
C4663      C4664   1.413       .  A
C4663      O4668   1.372       .  S
C4664      C4665   1.404       .  A
C4665      C4666   1.398       .  A
C4665      H4669   1.083       .  S
C4666      O4670   1.372       .  S
O4668      H4672   0.991       .  S
O4670      H4671   0.991       .  S
C4673      C4674   1.404       .  A
C4674      C4675   1.398       .  A
C4674      H4679   1.083       .  S
C4675      C4676   1.414       .  A
C4675      O4680   1.372       .  S
C4677      C4678   1.404       .  A
C4677      H4681   1.083   1_455  S
C4678      O4682   1.370   1_455  S
O4680      H4684   0.992       .  S
O4682      H4683   0.992   1_655  S
C4685      C4690   1.411       .  A
C4686      C4687   1.398       .  A
C4686      H4691   1.083       .  S
C4687      C4688   1.411       .  A
C4687      O4692   1.371       .  S
C4689      C4690   1.399       .  A
C4689      H4693   1.083       .  S
C4690      O4694   1.372       .  S
O4692      H4696   0.992       .  S
O4694      H4695   0.992       .  S
C4697      C4702   1.410       .  A
C4698      C4699   1.400       .  A
C4698      H4703   1.083       .  S
C4699      C4700   1.410       .  A
C4699      O4704   1.372       .  S
C4701      C4702   1.399       .  A
C4701      H4705   1.083       .  S
C4702      O4706   1.371       .  S
O4704      H4708   0.991       .  S
O4706      H4707   0.992       .  S
C4709      C4714   1.411       .  A
C4710      C4711   1.400       .  A
C4710      H4715   1.083       .  S
C4711      O4716   1.372       .  S
C4712      C4713   1.406       .  A
C4713      C4714   1.403       .  A
C4713      H4717   1.083       .  S
C4714      O4718   1.370       .  S
O4716      H4720   0.992       .  S
O4718      H4719   0.992       .  S
C4721      C4722   1.406       .  A
C4721      C4726   1.411       .  A
C4722      C4723   1.402       .  A
C4722      H4727   1.084       .  S
C4723      C4724   1.406       .  A
C4723      O4728   1.372       .  S
C4724      C4725   1.404       .  A
C4725      C4726   1.403       .  A
C4725      H4729   1.084       .  S
C4726      O4730   1.372       .  S
O4728      H4732   0.992       .  S
O4730      H4731   0.992       .  S
C4733      C4734   1.406       .  A
C4733      C4738   1.414       .  A
C4734      C4735   1.403       .  A
C4734      H4739   1.083       .  S
C4735      C4736   1.413       .  A
C4735      O4740   1.371       .  S
C4736      C4737   1.407       .  A
C4737      C4738   1.403       .  A
C4737      H4741   1.083       .  S
C4738      O4742   1.372       .  S
O4740      H4744   0.991       .  S
O4742      H4743   0.992       .  S
C4745      C4746   1.405       .  A
C4745      C4750   1.412       .  A
C4746      C4747   1.399       .  A
C4746      H4751   1.083       .  S
C4747      C4748   1.412       .  A
C4747      O4752   1.372       .  S
C4748      C4749   1.405       .  A
C4749      C4750   1.398       .  A
C4749      H4753   1.083       .  S
C4750      O4754   1.372       .  S
O4752      H4756   0.992       .  S
O4754      H4755   0.992       .  S
C4757      C4758   1.405       .  A
C4757      C4762   1.412       .  A
C4758      C4759   1.399       .  A
C4758      H4763   1.083       .  S
C4759      C4760   1.411       .  A
C4759      O4764   1.371       .  S
C4760      C4761   1.406       .  A
C4761      C4762   1.401       .  A
C4761      H4765   1.083       .  S
C4762      O4766   1.372       .  S
O4764      H4768   0.991       .  S
O4766      H4767   0.992       .  S
C4769      C4770   1.406       .  A
C4770      C4771   1.402       .  A
C4770      H4775   1.084       .  S
C4771      C4772   1.407       .  A
C4771      O4776   1.372       .  S
C4773      C4774   1.402       .  A
C4773      H4777   1.084       .  S
C4774      O4778   1.371       .  S
O4776      H4780   0.992       .  S
O4778      H4779   0.992       .  S
C4781      C4786   1.413       .  A
C4782      C4783   1.400       .  A
C4782      H4787   1.083       .  S
C4783      O4788   1.372       .  S
C4784      C4785   1.407       .  A
C4785      C4786   1.405       .  A
C4785      H4789   1.083       .  S
C4786      O4790   1.371   1_545  S
O4788      H4792   0.992       .  S
O4790      H4791   0.991       .  S
C4793      C4794   1.406       .  A
C4794      C4795   1.403       .  A
C4794      H4799   1.084       .  S
C4795      C4796   1.407       .  A
C4795      O4800   1.372       .  S
C4797      C4798   1.399       .  A
C4797      H4801   1.084       .  S
C4798      O4802   1.372       .  S
O4800      H4804   0.990       .  S
O4802      H4803   0.990       .  S
C4805      C4810   1.413       .  A
C4806      C4807   1.407       .  A
C4806      H4811   1.083       .  S
C4807      O4812   1.371       .  S
C4808      C4809   1.404       .  A
C4809      C4810   1.398       .  A
C4809      H4813   1.083       .  S
C4810      O4814   1.372       .  S
O4812      H4816   0.991       .  S
O4814      H4815   0.992       .  S
C4817      C4818   1.404   1_655  A
C4818      C4819   1.400       .  A
C4818      H4823   1.083       .  S
C4819      O4824   1.372       .  S
C4820      C4821   1.404       .  A
C4821      C4822   1.400       .  A
C4821      H4825   1.084       .  S
C4822      O4826   1.372       .  S
O4824      H4828   0.991       .  S
O4826      H4827   0.992       .  S
C4829      C4834   1.413       .  A
C4830      C4831   1.399       .  A
C4830      H4835   1.083       .  S
C4831      C4832   1.413       .  A
C4831      O4836   1.372       .  S
C4833      C4834   1.403       .  A
C4833      H4837   1.083       .  S
C4834      O4838   1.371       .  S
O4836      H4840   0.992       .  S
O4838      H4839   0.992       .  S
C4841      C4846   1.409       .  A
C4842      C4843   1.402       .  A
C4842      H4847   1.084       .  S
C4843      C4844   1.406       .  A
C4843      O4848   1.372       .  S
C4845      C4846   1.400       .  A
C4845      H4849   1.084       .  S
C4846      O4850   1.372       .  S
O4848      H4852   0.992       .  S
O4850      H4851   0.992       .  S
C4853      C4854   1.407       .  A
C4854      C4855   1.405       .  A
C4854      H4859   1.083       .  S
C4855      O4860   1.371       .  S
C4856      C4857   1.407       .  A
C4857      C4858   1.400       .  A
C4857      H4861   1.083   1_545  S
C4858      O4862   1.372   1_545  S
O4860      H4864   0.991       .  S
O4862      H4863   0.992       .  S
