geometry optimzed in LAMMPS
_audit_creation_date              2020-11-30 
_audit_creation_method            'lammps2cif' 
_symmetry_space_group_name_H-M    'P1' 
_symmetry_Int_Tables_number       1 
_symmetry_cell_setting            triclinic 
loop_ 
_symmetry_equiv_pos_as_xyz 
  x,y,z 
_cell_length_a                    27.10515521 
_cell_length_b                    27.40685693091916 
_cell_length_c                    44.49072567672175 
_cell_angle_alpha                 90.57230925247873 
_cell_angle_beta                  89.21703386091498 
_cell_angle_gamma                 105.45935971827541 
loop_ 
_atom_site_label 
_atom_site_type_symbol 
_atom_site_fract_x 
_atom_site_fract_y 
_atom_site_fract_z 
_atom_site_charge 
C1          C  0.97102257  0.97835088  0.72177626     0.45700
H2          H  0.97170429  0.97470989  0.69696149    -0.03400
C3          C  0.96840493  0.98617296  0.77994225     0.45700
H4          H  0.96653965  0.98936013  0.80482429    -0.03400
C5          C  0.02257731  0.97962303  0.73678284    -0.17100
C6          C  0.95624876  0.02647353  0.73293108    -0.16800
C7          C  0.93293539  0.93306210  0.73650230    -0.17200
C8          C  0.02112173  0.98447777  0.76774388    -0.17200
C9          C  0.95871574  0.03218693  0.76390485    -0.16700
C10         C  0.93022205  0.93803995  0.76724496    -0.17100
O11         O  0.74613361  0.25668246  0.02543062    -0.80700
O12         O  0.71935734  0.43855394  0.95742227    -0.65400
O13         O  0.71180279  0.34315859  0.02002081    -1.12000
C14         C  0.56425385  0.24782104  0.97465410     1.06200
O15         O  0.63534772  0.42937532  0.95602533    -0.78600
O16         O  0.59424086  0.37744903  0.00665269    -0.66200
Ni17       Ni  0.77222669  0.32788807  0.03364990     1.34900
C18         C  0.58591209  0.34506819  0.02760318     0.84900
O19         O  0.77231236  0.44051772  0.00748495    -0.79100
O20         O  0.80173896  0.39808361  0.04308099    -0.89400
C21         C  0.68120411  0.45397288  0.94973708     0.84500
O22         O  0.81032591  0.33468057  0.99685741    -0.67600
O23         O  0.55754087  0.29189497  0.97180384    -0.86900
C24         C  0.80334819  0.34869285  0.97052764     0.85300
C25         C  0.80032199  0.43910152  0.03013873     1.06900
H26         H  0.67265655  0.32802217  0.95257018     0.38700
O27         O  0.66216891  0.34018451  0.97140952    -1.09600
O28         O  0.60674844  0.30829736  0.02740949    -0.66200
Ni29       Ni  0.65945715  0.29072389  0.00207817     1.26300
O30         O  0.76617712  0.36690035  0.96413854    -0.66400
O31         O  0.60674505  0.24044680  0.98237539    -0.78700
C32         C  0.70436691  0.22996333  0.03655958     0.84700
O33         O  0.66292250  0.24234186  0.03248655    -0.65900
Ni34       Ni  0.60060147  0.35981876  0.96538201     1.27400
Ni35       Ni  0.71768115  0.39092024  0.98864410     1.26100
H36         H  0.69730645  0.35621435  0.03730992     0.39300
N37         N  0.74805847  0.74336516  0.90950533    -0.03300
C38         C  0.79084409  0.78226313  0.90557996    -0.00700
C39         C  0.78890626  0.82270092  0.92395462    -0.23600
C40         C  0.74304496  0.80929463  0.93908458    -0.23800
C41         C  0.71830359  0.76113141  0.92940870    -0.00800
H42         H  0.81477813  0.86035423  0.92328482     0.13000
H43         H  0.72687977  0.83424215  0.95272391     0.13000
O44         O  0.39404958  0.66990110  0.96744927    -0.80700
O45         O  0.20145064  0.68053220  0.04288281    -0.65400
O46         O  0.30458279  0.70017673  0.98139716    -1.12000
C47         C  0.40150362  0.81737170  0.05339469     1.06200
O48         O  0.21565001  0.76405148  0.04583179    -0.78600
O49         O  0.29407077  0.83270708  0.02106601    -0.66200
Ni50       Ni  0.32144992  0.64639816  0.95997930     1.34900
C51         C  0.31374526  0.83366710  0.99496362     0.84900
O52         O  0.20333678  0.63706738  0.98827613    -0.79100
O53         O  0.25069166  0.61745319  0.95030121    -0.89400
C54         C  0.18666078  0.71964960  0.04997104     0.84500
O55         O  0.31558750  0.60156632  0.99300020    -0.67600
O56         O  0.35851131  0.81789336  0.06548408    -0.86900
C57         C  0.29680507  0.59914857  0.01943623     0.85300
C58         C  0.20826031  0.61231287  0.96437091     1.06900
H59         H  0.31471196  0.71481652  0.05058829     0.38700
O60         O  0.30361658  0.73337150  0.03485575    -1.09600
O61         O  0.33795903  0.80209976  0.98621190    -0.66200
Ni62       Ni  0.35568934  0.74586186  0.00499697     1.26300
O63         O  0.27365078  0.63083792  0.02981752    -0.66400
O64         O  0.40514997  0.79152425  0.02979367    -0.78700
C65         C  0.42379474  0.71436841  0.96895216     0.84700
O66         O  0.40749040  0.75246624  0.97517453    -0.65900
Ni67       Ni  0.28753086  0.78887499  0.05468643     1.27400
Ni68       Ni  0.25263977  0.68625730  0.01189503     1.26100
H69         H  0.29310488  0.71951247  0.96623708     0.39300
N70         N  0.31133118  0.30223645  0.09745447    -0.03300
C71         C  0.27261165  0.26128436  0.10603915    -0.00700
C72         C  0.22930641  0.25874676  0.08930252    -0.23600
C73         C  0.23990656  0.30035566  0.07129991    -0.23800
C74         C  0.28982242  0.32652372  0.07681268    -0.00800
H75         H  0.19149288  0.23381966  0.09328513     0.13000
H76         H  0.21271007  0.31279967  0.05777814     0.13000
N77         N  0.26216427  0.07007544  0.91316855    -0.03300
C78         C  0.22835340  0.08102154  0.89376137    -0.00700
C79         C  0.23620176  0.13298842  0.89200735    -0.23600
C80         C  0.27546180  0.15463224  0.91099561    -0.23800
C81         C  0.29064370  0.11533735  0.92363735    -0.00800
H82         H  0.21605192  0.15307560  0.87790162     0.13000
H83         H  0.29199476  0.19472960  0.91468562     0.13000
N84         N  0.91758405  0.74479487  0.11058523    -0.03300
C85         C  0.90025532  0.77220509  0.13201861    -0.00700
C86         C  0.84714888  0.75718720  0.13309324    -0.23600
C87         C  0.83148301  0.71937331  0.11215907    -0.23800
C88         C  0.87530398  0.71246122  0.09885979    -0.00800
H89         H  0.82231628  0.77108009  0.14824471     0.13000
H90         H  0.79251073  0.69767011  0.10804215     0.13000
N91         N  0.04509488  0.32678325  0.87392934    -0.03300
C92         C  0.06092357  0.29092988  0.85772563    -0.00700
C93         C  0.11200635  0.31013027  0.84957032    -0.23600
C94         C  0.12748433  0.35878960  0.86013772    -0.23800
C95         C  0.08598973  0.36829719  0.87494794    -0.00800
H96         H  0.13541297  0.29131333  0.83637350     0.13000
H97         H  0.16490999  0.38487588  0.85695176     0.13000
N98         N  0.68038662  0.00062956  0.14901504    -0.03300
C99         C  0.71998565  0.99344202  0.16537910    -0.00700
C100        C  0.70544422  0.94693937  0.17943465    -0.23600
C101        C  0.65556119  0.92476061  0.17161553    -0.23800
C102        C  0.64108364  0.95819803  0.15288153    -0.00800
H103        H  0.72875166  0.93091113  0.19391363     0.13000
H104        H  0.63277800  0.88753450  0.17812129     0.13000
O105        O  0.64724628  0.42544640  0.52686280    -0.80700
O106        O  0.64960002  0.22371921  0.45165383    -0.65400
O107        O  0.66859317  0.33354358  0.50835729    -1.12000
C108        C  0.79697762  0.41555648  0.43730983     1.06200
O109        O  0.73288832  0.23248049  0.44994422    -0.78600
O110        O  0.80126769  0.30731900  0.47772870    -0.66200
Ni111      Ni  0.60962722  0.35474901  0.52125106     1.34900
C112        C  0.80116109  0.33330558  0.50145347     0.84900
O113        O  0.61050062  0.23344307  0.50692242    -0.79100
O114        O  0.56442114  0.28657744  0.52073267    -0.89400
C115        C  0.68755729  0.20744520  0.44366489     0.84500
O116        O  0.59132231  0.36602310  0.48093980    -0.67600
O117        O  0.79999557  0.37122508  0.42998348    -0.86900
C118        C  0.58025893  0.33193329  0.46055684     0.85300
C119        C  0.57177402  0.24252121  0.51984445     1.06900
H120        H  0.68862428  0.33277802  0.43847040     0.38700
O121        O  0.70569253  0.32414048  0.45575375    -1.09600
O122        O  0.77168621  0.36211065  0.50502752    -0.66200
Ni123      Ni  0.71775941  0.37946117  0.48335290     1.26300
O124        O  0.60007288  0.29440392  0.45980612    -0.66400
O125        O  0.76608647  0.42364698  0.45740551    -0.78700
C126        C  0.69415817  0.45061536  0.52522604     0.84700
O127        O  0.72752382  0.43439715  0.51106273    -0.65900
Ni128      Ni  0.76388895  0.30282802  0.44112248     1.27400
Ni129      Ni  0.65701317  0.27802584  0.48038861     1.26100
H130        H  0.68484601  0.32495827  0.52599694     0.39300
N131        N  0.73867496  0.71401952  0.61039070    -0.03300
C132        C  0.78435587  0.74784615  0.61629840    -0.00700
C133        C  0.78954726  0.79102036  0.59916756    -0.23600
C134        C  0.74454321  0.78564339  0.58430846    -0.23800
C135        C  0.71376412  0.73884995  0.59222542    -0.00800
H136        H  0.81914924  0.82625913  0.60132867     0.13000
H137        H  0.73391232  0.81446809  0.57141708     0.13000
O138        O  0.22453960  0.73811184  0.44932435    -0.80700
O139        O  0.41062369  0.72721119  0.53058698    -0.65400
O140        O  0.30877249  0.70888235  0.47090099    -1.12000
C141        C  0.21032054  0.59688566  0.54482556     1.06200
O142        O  0.39697852  0.64546710  0.53886617    -0.78600
O143        O  0.31717349  0.57851997  0.51349579    -0.66200
Ni144      Ni  0.29737238  0.76818243  0.45264462     1.34900
C145        C  0.29713792  0.57558129  0.48768092     0.84900
O146        O  0.41199768  0.75881691  0.47575074    -0.79100
O147        O  0.36967327  0.80511428  0.45117015    -0.89400
C148        C  0.42680071  0.68984429  0.53759510     0.84500
O149        O  0.28713928  0.80014602  0.48980639    -0.67600
O150        O  0.25312542  0.59843115  0.55682802    -0.86900
C151        C  0.31368326  0.80505750  0.51354583     0.85300
C152        C  0.41122760  0.79569794  0.45913476     1.06900
H153        H  0.29789280  0.69970475  0.54055376     0.38700
O154        O  0.30790683  0.67870883  0.52534097    -1.09600
O155        O  0.27409843  0.60733362  0.47820222    -0.66200
Ni156      Ni  0.25604865  0.66537085  0.49540766     1.26300
O157        O  0.34584367  0.77946205  0.51816030    -0.66400
O158        O  0.20540164  0.62064151  0.52088080    -0.78700
C159        C  0.19467787  0.69345288  0.45038176     0.84700
O160        O  0.20497240  0.65749449  0.46486460    -0.65900
Ni161      Ni  0.32383516  0.62451741  0.54647072     1.27400
Ni162      Ni  0.36014299  0.71959156  0.50079366     1.26100
H163        H  0.31844367  0.68913300  0.45485903     0.39300
N164        N  0.29966266  0.04006708  0.61542262    -0.03300
C165        C  0.27791993  0.03666809  0.64320175    -0.00700
C166        C  0.30838025  0.07125157  0.66260195    -0.23600
C167        C  0.35065871  0.09664352  0.64630828    -0.23800
C168        C  0.34436809  0.07665502  0.61758177    -0.00800
H169        H  0.29909638  0.07954107  0.68549953     0.13000
H170        H  0.38124803  0.12810164  0.65407898     0.13000
N171        N  0.01402677  0.30480599  0.61623322    -0.03300
C172        C  0.01710812  0.27432126  0.63970984    -0.00700
C173        C  0.05485041  0.29933346  0.65922374    -0.23600
C174        C  0.07557082  0.34672481  0.64764728    -0.23800
C175        C  0.04992469  0.34935197  0.62129707    -0.00800
H176        H  0.06690422  0.28415257  0.67937635     0.13000
H177        H  0.10704759  0.37559431  0.65702341     0.13000
N178        N  0.96491660  0.69909306  0.34213035    -0.03300
C179        C  0.96105494  0.73057877  0.31920235    -0.00700
C180        C  0.91138709  0.71900074  0.30889388    -0.23600
C181        C  0.88344221  0.67964703  0.32591714    -0.23800
C182        C  0.91682798  0.66810364  0.34609887    -0.00800
H183        H  0.89637511  0.73945908  0.29216505     0.13000
H184        H  0.84268687  0.66232354  0.32444443     0.13000
N185        N  0.30614894  0.28493208  0.39808835    -0.03300
C186        C  0.26729785  0.24497831  0.38894255    -0.00700
C187        C  0.22511522  0.23920058  0.40775396    -0.23600
C188        C  0.23714525  0.27735968  0.42855561    -0.23800
C189        C  0.28651429  0.30489142  0.42212583    -0.00800
H190        H  0.18734080  0.21409949  0.40426889     0.13000
H191        H  0.21100538  0.28712959  0.44468280     0.13000
N192        N  0.70271842  0.95301314  0.36126963    -0.03300
C193        C  0.73733786  0.93713999  0.34375443    -0.00700
C194        C  0.72284061  0.88467790  0.34176082    -0.23600
C195        C  0.67833640  0.86785681  0.35797025    -0.23800
C196        C  0.66678215  0.91028441  0.36954641    -0.00800
H197        H  0.74137943  0.86113219  0.32854531     0.13000
H198        H  0.65565218  0.82901300  0.36006159     0.13000
C199        C  0.05149715  0.06243809  0.21474036     0.45700
H200        H  0.05499364  0.06342872  0.18985771    -0.03400
C201        C  0.04560547  0.06157741  0.27269599     0.45700
H202        H  0.04368215  0.06235106  0.29761472    -0.03400
C203        C  0.09705917  0.10065713  0.22965513    -0.17100
C204        C  0.00126480  0.07293146  0.22656088    -0.16800
C205        C  0.04979048  0.01027409  0.22835673    -0.17200
C206        C  0.09414957  0.09977820  0.26048961    -0.17200
C207        C  0.99812051  0.07196050  0.25773684    -0.16700
C208        C  0.04752802  0.00987475  0.25945049    -0.17100
C209        C  0.77734859  0.96786933  0.32298113    -0.05000
C210        C  0.77806726  0.95011797  0.29318118    -0.05000
C211        C  0.82024637  0.96827101  0.27430333    -0.23100
C212        C  0.86254611  0.00578344  0.28441870     0.19100
C213        C  0.86114599  0.02740127  0.31326554     0.16300
C214        C  0.81864899  0.00801516  0.33258761    -0.18200
C215        C  0.90346778  0.06623828  0.32264731    -0.20000
C216        C  0.94673840  0.08256186  0.30385759    -0.12600
C217        C  0.94898791  0.05997933  0.27551833     0.04100
C218        C  0.90681389  0.02064546  0.26641672    -0.24700
H219        H  0.74664082  0.91994588  0.28484802     0.09200
H220        H  0.82024543  0.95201921  0.25198868     0.12800
H221        H  0.81973143  0.02222862  0.35529020     0.12700
H222        H  0.90345285  0.08344619  0.34467381     0.12500
H223        H  0.97919774  0.11193253  0.31182137     0.13000
H224        H  0.90886331  0.00010689  0.24573365     0.15000
C225        C  0.13817006  0.11992727  0.28109649    -0.05000
C226        C  0.15175774  0.08614136  0.30093613    -0.05000
C227        C  0.18681264  0.10369475  0.32386729    -0.23100
C228        C  0.20959113  0.15558892  0.32737000     0.19100
C229        C  0.19889291  0.18993866  0.30652933     0.16300
C230        C  0.16271775  0.17196117  0.28371758    -0.18200
C231        C  0.22206800  0.24193734  0.31016141    -0.20000
C232        C  0.25183455  0.25986734  0.33550679    -0.12600
C233        C  0.25870310  0.22618171  0.35767499     0.04100
C234        C  0.23951691  0.17390377  0.35271039    -0.24700
H235        H  0.13377464  0.04588962  0.29936840     0.09200
H236        H  0.19473536  0.07675338  0.33950529     0.12800
H237        H  0.15131654  0.19874892  0.26959641     0.12700
H238        H  0.21468807  0.26894404  0.29438055     0.12500
H239        H  0.26509130  0.30034963  0.33929832     0.13000
H240        H  0.24362575  0.14782309  0.37007999     0.15000
C241        C  0.03919777  0.96351302  0.27878171    -0.05000
C242        C  0.00715064  0.95864834  0.30437263    -0.05000
C243        C  0.99276320  0.91342483  0.32037700    -0.23100
C244        C  0.00828434  0.87112578  0.31051935     0.19100
C245        C  0.04157845  0.87540697  0.28540496     0.16300
C246        C  0.05883504  0.92229093  0.27060148    -0.18200
C247        C  0.05372631  0.83180173  0.27423579    -0.20000
C248        C  0.03054799  0.78420936  0.28669907    -0.12600
C249        C  0.99734106  0.77982307  0.31164241     0.04100
C250        C  0.98774836  0.82378906  0.32397250    -0.24700
H251        H  0.99061793  0.98877337  0.31135283     0.09200
H252        H  0.96685681  0.91066354  0.33943513     0.12800
H253        H  0.08444767  0.92550269  0.25138373     0.12700
H254        H  0.07831761  0.83399970  0.25461134     0.12500
H255        H  0.03637670  0.75062045  0.27584237     0.13000
H256        H  0.96031849  0.82032338  0.34233963     0.15000
C257        C  0.16527135  0.56337170  0.55975385    -0.05000
C258        C  0.15715510  0.57080406  0.59048457    -0.05000
C259        C  0.12659845  0.53185985  0.60785407    -0.23100
C260        C  0.10496245  0.48420615  0.59494435     0.19100
C261        C  0.11063882  0.47697714  0.56370667     0.16300
C262        C  0.14008115  0.51705840  0.54613454    -0.18200
C263        C  0.09028323  0.42868744  0.55113925    -0.20000
C264        C  0.06757972  0.38740415  0.56959111    -0.12600
C265        C  0.06406171  0.39382274  0.60086433     0.04100
C266        C  0.08114954  0.44284969  0.61315645    -0.24700
H267        H  0.17717754  0.60584367  0.60143485     0.09000
H268        H  0.12267998  0.53803107  0.63176305     0.12800
H269        H  0.14757225  0.51063280  0.52262266     0.12700
H270        H  0.09436195  0.42229538  0.52727131     0.12500
H271        H  0.05563805  0.35005087  0.55955782     0.13000
H272        H  0.07851546  0.44832070  0.63723338     0.15000
C273        C  0.29930968  0.53172479  0.46837012    -0.05000
C274        C  0.27116446  0.52168563  0.44167166    -0.05000
C275        C  0.26786944  0.47703604  0.42548167    -0.23100
C276        C  0.29234047  0.44144493  0.43580983     0.19100
C277        C  0.32268122  0.45197402  0.46185516     0.16300
C278        C  0.32643308  0.49727657  0.47775854    -0.18200
C279        C  0.34636569  0.41574004  0.47244385    -0.20000
C280        C  0.33722427  0.36822774  0.45846599    -0.12600
C281        C  0.30553337  0.35711977  0.43332773     0.04100
C282        C  0.28458467  0.39432508  0.42150070    -0.24700
H283        H  0.25014665  0.54750283  0.43381462     0.09200
H284        H  0.24461207  0.46949585  0.40547954     0.12800
H285        H  0.34863737  0.50452327  0.49818274     0.12700
H286        H  0.36988010  0.42324235  0.49233875     0.12500
H287        H  0.35317278  0.33954090  0.46788363     0.13000
H288        H  0.25955472  0.38526161  0.40225408     0.15000
C289        C  0.30818830  0.84265632  0.53678348    -0.05000
C290        C  0.32557050  0.83901595  0.56610742    -0.05000
C291        C  0.32389180  0.87562416  0.58783571    -0.23100
C292        C  0.30553978  0.91716760  0.58060963     0.19100
C293        C  0.28724134  0.92125996  0.55139446     0.16300
C294        C  0.28801977  0.88354897  0.52974103    -0.18200
C295        C  0.27017134  0.96388716  0.54418950    -0.20000
C296        C  0.27282033  0.00268602  0.56544172    -0.12600
C297        C  0.29148083  0.99877478  0.59428466     0.04100
C298        C  0.30688192  0.95555519  0.60187442    -0.24700
H299        H  0.34092305  0.80787554  0.57224983     0.09200
H300        H  0.33804041  0.87200715  0.61014326     0.12800
H301        H  0.27478782  0.88705437  0.50719008     0.12700
H302        H  0.25611551  0.96783945  0.52191379     0.12500
H303        H  0.26114721  0.03604455  0.55932282     0.13000
H304        H  0.32195175  0.95308727  0.62409217     0.15000
C305        C  0.61777375  0.90743310  0.38513880    -0.05000
C306        C  0.57515376  0.90911608  0.36805045    -0.05000
C307        C  0.52563638  0.89238333  0.38010880    -0.23100
C308        C  0.51802303  0.87317622  0.40940074     0.19100
C309        C  0.56109841  0.87394395  0.42726817     0.16300
C310        C  0.61071144  0.89109594  0.41501330    -0.18200
C311        C  0.55374571  0.85485183  0.45651054    -0.20000
C312        C  0.50444658  0.83239764  0.46728641    -0.12600
C313        C  0.46147857  0.82812688  0.44904406     0.04100
C314        C  0.46831721  0.85055769  0.42049913    -0.24700
H315        H  0.58007857  0.92049242  0.34471466     0.09200
H316        H  0.49326826  0.89219445  0.36604631     0.12800
H317        H  0.64356245  0.88867550  0.42797857     0.12700
H318        H  0.58615578  0.85573905  0.47070483     0.12500
H319        H  0.49992203  0.81707980  0.48978507     0.13000
H320        H  0.43545008  0.84765843  0.40630971     0.15000
C321        C  0.14578367  0.68484010  0.43416444    -0.05000
C322        C  0.09913482  0.67552276  0.45001348    -0.05000
C323        C  0.05401239  0.67644660  0.43519771    -0.23100
C324        C  0.05473325  0.68601924  0.40418432     0.19100
C325        C  0.10119730  0.69321903  0.38787051     0.16300
C326        C  0.14644534  0.69317643  0.40300300    -0.18200
C327        C  0.10181928  0.70134567  0.35679379    -0.20000
C328        C  0.05706913  0.70299234  0.34205506    -0.12600
C329        C  0.01087025  0.69770751  0.35802113     0.04100
C330        C  0.01008717  0.68911231  0.38926927    -0.24700
H331        H  0.09806287  0.66982017  0.47409308     0.09200
H332        H  0.01872986  0.67051769  0.44808506     0.12800
H333        H  0.18248229  0.70076872  0.39070313     0.12700
H334        H  0.13690976  0.70621437  0.34382743     0.12500
H335        H  0.05843153  0.70765092  0.31796222     0.13000
H336        H  0.97507323  0.68548381  0.40206636     0.15000
C337        C  0.65870699  0.72110622  0.58514907    -0.05000
C338        C  0.62370698  0.69580437  0.60709104    -0.05000
C339        C  0.57122425  0.68202114  0.60159328    -0.23100
C340        C  0.55275800  0.69445965  0.57426972     0.19100
C341        C  0.58771853  0.72050459  0.55213027     0.16300
C342        C  0.64043805  0.73335158  0.55764454    -0.18200
C343        C  0.56927251  0.73413089  0.52508718    -0.20000
C344        C  0.51667834  0.72312207  0.52034022    -0.12600
C345        C  0.48183757  0.69801957  0.54236333     0.04100
C346        C  0.49992032  0.68270172  0.56904569    -0.24700
H347        H  0.63677444  0.68837113  0.62899435     0.09200
H348        H  0.54503917  0.66283763  0.61900034     0.12800
H349        H  0.66719063  0.75347769  0.54074591     0.12700
H350        H  0.59542377  0.75387600  0.50781786     0.12500
H351        H  0.50301555  0.73386954  0.49933598     0.13000
H352        H  0.47290554  0.66339284  0.58606583     0.15000
C353        C  0.83702104  0.33073730  0.52615119    -0.05000
C354        C  0.84101471  0.36369391  0.55099675    -0.05000
C355        C  0.87504733  0.36319150  0.57414069    -0.23100
C356        C  0.90586905  0.32957186  0.57314534     0.19100
C357        C  0.90201486  0.29542943  0.54872993     0.16300
C358        C  0.86764837  0.29627250  0.52528760    -0.18200
C359        C  0.93318444  0.26171809  0.54814244    -0.20000
C360        C  0.96854475  0.26287078  0.57111878    -0.12600
C361        C  0.97328744  0.29779896  0.59486653     0.04100
C362        C  0.94130089  0.33045052  0.59592950    -0.24700
H363        H  0.81812788  0.39055987  0.55247140     0.09200
H364        H  0.87757183  0.38952569  0.59275063     0.12800
H365        H  0.86498297  0.27040538  0.50642561     0.12700
H366        H  0.93089388  0.23518504  0.52966936     0.12500
H367        H  0.99352286  0.23798341  0.56980957     0.13000
H368        H  0.94527555  0.35759797  0.61422782     0.15000
C369        C  0.68020825  0.15849871  0.42741517    -0.05000
C370        C  0.63787772  0.13960562  0.40872692    -0.05000
C371        C  0.63455731  0.09635418  0.39085542    -0.23100
C372        C  0.67315732  0.07084835  0.39171617     0.19100
C373        C  0.71485136  0.08865906  0.41128708     0.16300
C374        C  0.71828635  0.13235932  0.42871291    -0.18200
C375        C  0.75236781  0.06226100  0.41334479    -0.20000
C376        C  0.74861305  0.01850296  0.39625819    -0.12600
C377        C  0.70880525  0.00147581  0.37573595     0.04100
C378        C  0.67067454  0.02755687  0.37376498    -0.24700
H379        H  0.60822935  0.15924353  0.40719021     0.09200
H380        H  0.60201345  0.08307193  0.37622944     0.12800
H381        H  0.75091269  0.14622936  0.44324201     0.12700
H382        H  0.78395052  0.07473212  0.42873999     0.12500
H383        H  0.77614541  0.99686378  0.39963558     0.13000
H384        H  0.63872046  0.01341997  0.35883620     0.15000
C385        C  0.53397851  0.20102405  0.53510060    -0.05000
C386        C  0.55081127  0.16736151  0.55338496    -0.05000
C387        C  0.51621232  0.13321309  0.57183192    -0.23100
C388        C  0.46403004  0.13146384  0.57178809     0.19100
C389        C  0.44624278  0.16300200  0.55201626     0.16300
C390        C  0.48144052  0.19806379  0.53408709    -0.18200
C391        C  0.39382530  0.16027807  0.55142800    -0.20000
C392        C  0.35978357  0.12850059  0.57129469    -0.12600
C393        C  0.37771826  0.09948368  0.59218944     0.04100
C394        C  0.42969025  0.10034058  0.59202701    -0.24700
H395        H  0.59118221  0.16931014  0.55457174     0.09200
H396        H  0.53044884  0.10907479  0.58666827     0.12800
H397        H  0.46822648  0.22382111  0.51987814     0.12700
H398        H  0.37944351  0.18392217  0.53632164     0.12500
H399        H  0.31991073  0.12886556  0.57160843     0.13000
H400        H  0.44357848  0.07834459  0.60844363     0.15000
C401        C  0.53929267  0.33365838  0.43878607    -0.05000
C402        C  0.52681479  0.37945840  0.43351250    -0.05000
C403        C  0.48170423  0.37997885  0.41865309    -0.23100
C404        C  0.44728524  0.33451336  0.40949780     0.19100
C405        C  0.46086264  0.28855630  0.41281547     0.16300
C406        C  0.50727439  0.28850532  0.42684796    -0.18200
C407        C  0.42587174  0.24304055  0.40426545    -0.20000
C408        C  0.37604298  0.24248966  0.39592762    -0.12600
C409        C  0.36031480  0.28751702  0.39544080     0.04100
C410        C  0.39780112  0.33380365  0.39973556    -0.24700
H411        H  0.55084528  0.41478496  0.44215712     0.09200
H412        H  0.47214477  0.41566185  0.41614655     0.12800
H413        H  0.51608647  0.25279759  0.43082791     0.12700
H414        H  0.43568847  0.20739463  0.40625529     0.12500
H415        H  0.34852835  0.20623575  0.39251247     0.13000
H416        H  0.38710314  0.36903310  0.39831058     0.15000
C417        C  0.89896061  0.62937468  0.36955369    -0.05000
C418        C  0.86054150  0.63496592  0.38972990    -0.05000
C419        C  0.83586159  0.59542273  0.40862825    -0.23100
C420        C  0.84828774  0.54901217  0.40712613     0.19100
C421        C  0.88771276  0.54321849  0.38736730     0.16300
C422        C  0.91347011  0.58386041  0.36895049    -0.18200
C423        C  0.89884285  0.49613150  0.38538981    -0.20000
C424        C  0.87006368  0.45482863  0.40197599    -0.12600
C425        C  0.83008641  0.45997316  0.42124586     0.04100
C426        C  0.82036712  0.50776119  0.42415098    -0.24700
H427        H  0.84856680  0.66966417  0.39016898     0.09200
H428        H  0.80569630  0.60050472  0.42358309     0.12800
H429        H  0.94240224  0.57915667  0.35295113     0.12700
H430        H  0.92887640  0.49086318  0.37040486     0.12500
H431        H  0.87873285  0.41865230  0.39941650     0.13000
H432        H  0.78967956  0.51252116  0.43881048     0.15000
C433        C  0.71090869  0.50152343  0.53966351    -0.05000
C434        C  0.74911933  0.53969519  0.52561226    -0.05000
C435        C  0.76506975  0.58820359  0.53818311    -0.23100
C436        C  0.74388003  0.59947506  0.56544418     0.19100
C437        C  0.70694221  0.56112084  0.58060939     0.16300
C438        C  0.69018385  0.51239341  0.56744330    -0.18200
C439        C  0.68679472  0.57275292  0.60827890    -0.20000
C440        C  0.70070326  0.62247586  0.61974399    -0.12600
C441        C  0.73473741  0.66139221  0.60370272     0.04100
C442        C  0.75757555  0.64903618  0.57710789    -0.24700
H443        H  0.76590502  0.53229058  0.50438246     0.09200
H444        H  0.79360878  0.61713279  0.52635266     0.12800
H445        H  0.66133195  0.48303634  0.57876803     0.12700
H446        H  0.65902787  0.54379629  0.62055252     0.12500
H447        H  0.68315948  0.63098399  0.64042544     0.13000
H448        H  0.78357570  0.67901713  0.56451551     0.15000
C449        C  0.95575008  0.06589409  0.20593434    -0.05000
C450        C  0.94972723  0.03015389  0.18231823    -0.05000
C451        C  0.90406408  0.01427740  0.16659031    -0.23100
C452        C  0.86275110  0.03382568  0.17376154     0.19100
C453        C  0.86877967  0.07279219  0.19554602     0.16300
C454        C  0.91561579  0.08923401  0.21126381    -0.18200
C455        C  0.82660575  0.09191305  0.20248290    -0.20000
C456        C  0.77836853  0.06981795  0.18981544    -0.12600
C457        C  0.77160963  0.02865322  0.16979110     0.04100
C458        C  0.81457993  0.01235611  0.16097238    -0.24700
H459        H  0.97905634  0.01162217  0.17679422     0.09200
H460        H  0.90032038  0.98475934  0.14971046     0.12800
H461        H  0.91951918  0.11749862  0.22890614     0.12700
H462        H  0.83013566  0.12186570  0.21903267     0.12500
H463        H  0.74556491  0.08223855  0.19745579     0.13000
H464        H  0.80949667  0.97996514  0.14599070     0.15000
C465        C  0.93066732  0.80769764  0.15464013    -0.05000
C466        C  0.91124886  0.80594166  0.18425535    -0.05000
C467        C  0.93212485  0.84398594  0.20497744    -0.23100
C468        C  0.97379147  0.88405992  0.19676100     0.19100
C469        C  0.99637239  0.88446381  0.16796236     0.16300
C470        C  0.97421519  0.84669477  0.14691257    -0.18200
C471        C  0.03923452  0.92400958  0.16028661    -0.20000
C472        C  0.05861810  0.96330270  0.18072789    -0.12600
C473        C  0.03495333  0.96428370  0.20894091     0.04100
C474        C  0.99189394  0.92466557  0.21649896    -0.24700
H475        H  0.87834928  0.77590334  0.19113552     0.09200
H476        H  0.91497704  0.84260137  0.22721456     0.12800
H477        H  0.98924231  0.85007807  0.12435181     0.12700
H478        H  0.05717543  0.92504317  0.13830434     0.12500
H479        H  0.09084796  0.99392933  0.17391995     0.13000
H480        H  0.97106714  0.92620995  0.23728052     0.15000
C481        C  0.26334518  0.24205670  0.13726470    -0.05000
C482        C  0.24816801  0.27346603  0.15866549    -0.05000
C483        C  0.21575914  0.25271252  0.18276642    -0.23100
C484        C  0.19892693  0.20005411  0.18643924     0.19100
C485        C  0.21874135  0.16842262  0.16710805     0.16300
C486        C  0.25033395  0.18952881  0.14242355    -0.18200
C487        C  0.20348556  0.11591410  0.17151070    -0.20000
C488        C  0.16694753  0.09486927  0.19362735    -0.12600
C489        C  0.14358492  0.12542820  0.21125962     0.04100
C490        C  0.16039984  0.17834912  0.20779376    -0.24700
H491        H  0.25655758  0.31383806  0.15479144     0.09200
H492        H  0.20163081  0.27774782  0.19754237     0.12800
H493        H  0.26081163  0.16482680  0.12575779     0.12700
H494        H  0.21873742  0.09095361  0.15729704     0.12500
H495        H  0.15547980  0.05423405  0.19628838     0.13000
H496        H  0.14142045  0.20242890  0.22018145     0.15000
C497        C  0.16431022  0.57171234  0.95328597    -0.05000
C498        C  0.13903252  0.53291527  0.97292672    -0.05000
C499        C  0.11052564  0.48598209  0.96163348    -0.23100
C500        C  0.10668017  0.47718376  0.93048014     0.19100
C501        C  0.12772095  0.51780329  0.91072563     0.16300
C502        C  0.15631540  0.56466542  0.92223101    -0.18200
C503        C  0.12395894  0.50961716  0.87964206    -0.20000
C504        C  0.10447890  0.46078963  0.86819655    -0.12600
C505        C  0.08794573  0.41918842  0.88748838     0.04100
C506        C  0.08649927  0.42785138  0.91869397    -0.24700
H507        H  0.14514447  0.53727011  0.99692757     0.09200
H508        H  0.09434915  0.45563721  0.97722357     0.12800
H509        H  0.17590648  0.59428013  0.90691957     0.12700
H510        H  0.13931067  0.54036413  0.86416393     0.12500
H511        H  0.10599778  0.45486074  0.84412132     0.13000
H512        H  0.07449225  0.39593250  0.93376148     0.15000
C513        C  0.30934581  0.37985347  0.06759375    -0.05000
C514        C  0.34069813  0.39269633  0.04202247    -0.05000
C515        C  0.34942710  0.44094119  0.02949446    -0.23100
C516        C  0.32551764  0.47630575  0.04187256     0.19100
C517        C  0.29552451  0.46425566  0.06831834     0.16300
C518        C  0.28823730  0.41630388  0.08122862    -0.18200
C519        C  0.27072941  0.49912363  0.08030280    -0.20000
C520        C  0.27305638  0.54429601  0.06524173    -0.12600
C521        C  0.30066033  0.55562596  0.03809170     0.04100
C522        C  0.32845849  0.52211526  0.02721490    -0.24700
H523        H  0.35652097  0.36469496  0.03105247     0.09200
H524        H  0.37260813  0.44962645  0.00922259     0.12800
H525        H  0.26325188  0.40598409  0.10070888     0.12700
H526        H  0.24773804  0.49048906  0.10064859     0.12500
H527        H  0.25153716  0.56933816  0.07422784     0.13000
H528        H  0.35035229  0.53031712  0.00644002     0.15000
C529        C  0.30761605  0.87362242  0.97412622    -0.05000
C530        C  0.33738132  0.88538513  0.94770292    -0.05000
C531        C  0.33253428  0.92481796  0.92907514    -0.23100
C532        C  0.29755023  0.95289043  0.93642424     0.19100
C533        C  0.26649558  0.94026654  0.96249349     0.16300
C534        C  0.27178520  0.90104514  0.98106012    -0.18200
C535        C  0.23134968  0.96785120  0.97006096    -0.20000
C536        C  0.22813655  0.00871912  0.95253772    -0.12600
C537        C  0.25957655  0.02250329  0.92709475     0.04100
C538        C  0.29394709  0.99422928  0.91881299    -0.24700
H539        H  0.36512829  0.86478155  0.94174628     0.09200
H540        H  0.35658899  0.93376985  0.90915754     0.12800
H541        H  0.24806031  0.89216107  0.00113403     0.12700
H542        H  0.20732301  0.95867927  0.98998279     0.12500
H543        H  0.20244195  0.03110121  0.95940135     0.13000
H544        H  0.31894432  0.00565961  0.89947140     0.15000
C545        C  0.13448332  0.71505676  0.06217153    -0.05000
C546        C  0.10740962  0.67158432  0.07766553    -0.05000
C547        C  0.06043915  0.66996059  0.09172400    -0.23100
C548        C  0.03914091  0.71124014  0.08978775     0.19100
C549        C  0.06465432  0.75392716  0.07274174     0.16300
C550        C  0.11247604  0.75597465  0.05957642    -0.18200
C551        C  0.04145483  0.79340874  0.06872726    -0.20000
C552        C  0.99313210  0.79018886  0.08123149    -0.12600
C553        C  0.96910070  0.74972852  0.09997916     0.04100
C554        C  0.99242158  0.71030161  0.10417680    -0.24700
H555        H  0.12343246  0.63959193  0.07982477     0.09200
H556        H  0.04083224  0.63648291  0.10418216     0.12800
H557        H  0.13244241  0.78938464  0.04712140     0.12700
H558        H  0.05981502  0.82584148  0.05505712     0.12500
H559        H  0.97413213  0.81918845  0.07615898     0.13000
H560        H  0.97363023  0.67846980  0.11807560     0.15000
C561        C  0.59174152  0.94439373  0.13665916    -0.05000
C562        C  0.54553185  0.93723009  0.15282785    -0.05000
C563        C  0.49861882  0.91408787  0.13927300    -0.23100
C564        C  0.49720431  0.89613595  0.10952203     0.19100
C565        C  0.54355414  0.90389474  0.09296080     0.16300
C566        C  0.59040186  0.92873434  0.10646070    -0.18200
C567        C  0.54254514  0.88459921  0.06362450    -0.20000
C568        C  0.49646161  0.85689990  0.05100300    -0.12600
C569        C  0.44993539  0.84832113  0.06718094     0.04100
C570        C  0.45063942  0.86898310  0.09642780    -0.24700
H571        H  0.54597076  0.94810734  0.17631765     0.09200
H572        H  0.46365550  0.90840112  0.15244893     0.12800
H573        H  0.62607795  0.93292302  0.09415356     0.12700
H574        H  0.57764123  0.89001183  0.05060306     0.12500
H575        H  0.49738389  0.84198282  0.02842940     0.13000
H576        H  0.41531262  0.86270582  0.10932270     0.15000
C577        C  0.47897881  0.72079754  0.96643127    -0.05000
C578        C  0.50859321  0.72892019  0.99251210    -0.05000
C579        C  0.56119049  0.73400550  0.99072656    -0.23100
C580        C  0.58493479  0.73217610  0.96269846     0.19100
C581        C  0.55509174  0.72412945  0.93631192     0.16300
C582        C  0.50202814  0.71753126  0.93842356    -0.18200
C583        C  0.57910666  0.72480044  0.90819951    -0.20000
C584        C  0.63228733  0.73496248  0.90616524    -0.12600
C585        C  0.66214833  0.74202018  0.93219591     0.04100
C586        C  0.63821929  0.74038361  0.96046804    -0.24700
H587        H  0.49083875  0.73102467  0.01428768     0.09200
H588        H  0.58339929  0.74035489  0.01114892     0.12800
H589        H  0.47888014  0.71120990  0.91834287     0.12700
H590        H  0.55699682  0.71956566  0.88774787     0.12500
H591        H  0.65039989  0.73879639  0.88413734     0.13000
H592        H  0.66137298  0.74782833  0.98053586     0.15000
C593        C  0.33473650  0.12399845  0.94395989    -0.05000
C594        C  0.33423514  0.15234403  0.97032201    -0.05000
C595        C  0.37985323  0.17602803  0.98474308    -0.23100
C596        C  0.42676495  0.17271961  0.97248042     0.19100
C597        C  0.42746128  0.14097157  0.94729181     0.16300
C598        C  0.38111042  0.11605831  0.93340718    -0.18200
C599        C  0.47469886  0.13850199  0.93486296    -0.20000
C600        C  0.52051512  0.17033307  0.94567334    -0.12600
C601        C  0.51953515  0.20476372  0.96904737     0.04100
C602        C  0.47281408  0.20415906  0.98325787    -0.24700
H603        H  0.29879873  0.15913272  0.97849539     0.09200
H604        H  0.37868272  0.19990452  0.00416522     0.12800
H605        H  0.38166600  0.09504958  0.91268543     0.12700
H606        H  0.47604083  0.11426019  0.91565410     0.12500
H607        H  0.55625147  0.17071878  0.93435540     0.13000
H608        H  0.47205968  0.23097578  0.00125311     0.15000
C609        C  0.36511418  0.30241831  0.09552964    -0.05000
C610        C  0.37841605  0.25651587  0.09094593    -0.05000
C611        C  0.42746613  0.25607058  0.08077570    -0.23100
C612        C  0.46436960  0.30151294  0.07438269     0.19100
C613        C  0.45285334  0.34796504  0.08054642     0.16300
C614        C  0.40401940  0.34808841  0.09204388    -0.18200
C615        C  0.48904205  0.39342194  0.07302127    -0.20000
C616        C  0.53438483  0.39272093  0.05763201    -0.12600
C617        C  0.54542542  0.34665101  0.05033145     0.04100
C618        C  0.51106677  0.30117877  0.06004190    -0.24700
H619        H  0.34978537  0.22067747  0.09327275     0.09200
H620        H  0.43550530  0.22002412  0.07620908     0.12800
H621        H  0.39526873  0.38384891  0.09624483     0.12700
H622        H  0.48094132  0.42947815  0.07744442     0.12500
H623        H  0.55986646  0.42821815  0.05025017     0.13000
H624        H  0.51844969  0.26531571  0.05403641     0.15000
C625        C  0.74842514  0.69049587  0.90882126    -0.05000
C626        C  0.79167238  0.67659076  0.91916232    -0.05000
C627        C  0.78888343  0.62628554  0.92626627    -0.23100
C628        C  0.74250505  0.58875759  0.92365651     0.19100
C629        C  0.69977384  0.60149771  0.91141656     0.16300
C630        C  0.70341736  0.65185057  0.90339867    -0.18200
C631        C  0.65313447  0.56429289  0.90907606    -0.20000
C632        C  0.64796155  0.51586578  0.92048928    -0.12600
C633        C  0.68947335  0.50327170  0.93410723     0.04100
C634        C  0.73734524  0.53953026  0.93455497    -0.24700
H635        H  0.82686041  0.70523261  0.92374751     0.09200
H636        H  0.82223211  0.61731483  0.93542481     0.12800
H637        H  0.67030987  0.66091906  0.89436542     0.12700
H638        H  0.62000349  0.57323336  0.89958569     0.12500
H639        H  0.61084614  0.48858930  0.91939029     0.13000
H640        H  0.76974625  0.53045055  0.94491046     0.15000
C641        C  0.84152238  0.34452801  0.94684331    -0.05000
C642        C  0.84377201  0.36884350  0.91893968    -0.05000
C643        C  0.88301822  0.36843669  0.89806581    -0.23100
C644        C  0.92070903  0.34360932  0.90465548     0.19100
C645        C  0.91795850  0.31802963  0.93231710     0.16300
C646        C  0.87858079  0.31852883  0.95301749    -0.18200
C647        C  0.95549820  0.29344096  0.93930416    -0.20000
C648        C  0.99599888  0.29494332  0.91936144    -0.12600
C649        C  0.99941423  0.32026432  0.89190823     0.04100
C650        C  0.96175863  0.34477974  0.88456880    -0.24700
H651        H  0.81597480  0.38930780  0.91355244     0.09200
H652        H  0.88436147  0.38824253  0.87699106     0.12800
H653        H  0.87752405  0.29937902  0.97431388     0.12700
H654        H  0.95415762  0.27397188  0.96049935     0.12500
H655        H  0.02566501  0.27729432  0.92556628     0.13000
H656        H  0.96525567  0.36555508  0.86370494     0.15000
C657        C  0.83039122  0.48783376  0.04303087    -0.05000
C658        C  0.85431567  0.48899733  0.07098882    -0.05000
C659        C  0.87370872  0.53479711  0.08613664    -0.23100
C660        C  0.86947668  0.58014903  0.07358363     0.19100
C661        C  0.84927424  0.57995984  0.04445026     0.16300
C662        C  0.83036543  0.53385350  0.02922589    -0.18200
C663        C  0.84482979  0.62543603  0.03199545    -0.20000
C664        C  0.85703410  0.67001246  0.04909438    -0.12600
C665        C  0.87458862  0.66972709  0.07853773     0.04100
C666        C  0.88173077  0.62502039  0.09048439    -0.24700
H667        H  0.85555129  0.45428044  0.08198709     0.09200
H668        H  0.88972666  0.53444973  0.10829503     0.12800
H669        H  0.81272089  0.53369262  0.00748649     0.12700
H670        H  0.82947114  0.62599265  0.00967658     0.12500
H671        H  0.85041026  0.70415514  0.03992854     0.13000
H672        H  0.89299697  0.62427105  0.11371805     0.15000
C673        C  0.70516351  0.18454144  0.05419683    -0.05000
C674        C  0.74628997  0.16255706  0.05067515    -0.05000
C675        C  0.74997128  0.12226262  0.06873470    -0.23100
C676        C  0.71287799  0.10340406  0.09096442     0.19100
C677        C  0.67117111  0.12499678  0.09465145     0.16300
C678        C  0.66735865  0.16513575  0.07611330    -0.18200
C679        C  0.63415031  0.10622996  0.11696423    -0.20000
C680        C  0.63794864  0.06604132  0.13507400    -0.12600
C681        C  0.67891831  0.04405623  0.13141907     0.04100
C682        C  0.71663699  0.06323499  0.10948317    -0.24700
H683        H  0.77597733  0.17680935  0.03398734     0.09200
H684        H  0.78212416  0.10619044  0.06550014     0.12800
H685        H  0.63580765  0.18211622  0.07928759     0.12700
H686        H  0.60207131  0.12237880  0.12027503     0.12500
H687        H  0.60874050  0.05183408  0.15201886     0.13000
H688        H  0.74804169  0.04604505  0.10641832     0.15000
C689        C  0.89573535  0.90112864  0.78745356    -0.05000
C690        C  0.84363053  0.89951385  0.78887101    -0.05000
C691        C  0.81104975  0.86887992  0.80978669    -0.23100
C692        C  0.83055019  0.84101577  0.83062617     0.19100
C693        C  0.88315935  0.84266084  0.82970144     0.16300
C694        C  0.91543404  0.87245362  0.80785800    -0.18200
C695        C  0.90291825  0.81692160  0.85175922    -0.20000
C696        C  0.87166171  0.79285292  0.87559054    -0.12600
C697        C  0.81983863  0.79239821  0.87698858     0.04100
C698        C  0.79908521  0.81479728  0.85377885    -0.24700
H699        H  0.82836066  0.92299858  0.77412601     0.09200
H700        H  0.77103527  0.86874446  0.81052154     0.12800
H701        H  0.95602634  0.87493784  0.80741847     0.12700
H702        H  0.94316040  0.81798021  0.85156875     0.12500
H703        H  0.88853506  0.77703280  0.89374667     0.13000
H704        H  0.75941177  0.81590126  0.85537952     0.15000
C705        C  0.97837139  0.08377986  0.77801368    -0.05000
C706        C  0.01790190  0.11979294  0.76326084    -0.05000
C707        C  0.03753031  0.16798775  0.77520910    -0.23100
C708        C  0.02022780  0.18093195  0.80312175     0.19100
C709        C  0.98250977  0.14501129  0.81931015     0.16300
C710        C  0.96134793  0.09637770  0.80652740    -0.18200
C711        C  0.96771245  0.15856152  0.84803986    -0.20000
C712        C  0.99115388  0.20646229  0.86070905    -0.12600
C713        C  0.02916140  0.24208259  0.84463266     0.04100
C714        C  0.04191334  0.22893335  0.81541246    -0.24700
H715        H  0.03411797  0.11058539  0.74227285     0.09200
H716        H  0.06737610  0.19481991  0.76288330     0.12800
H717        H  0.93218129  0.06852215  0.81865673     0.12700
H718        H  0.93905347  0.13164944  0.86105063     0.12500
H719        H  0.98067809  0.21446208  0.88333323     0.13000
H720        H  0.07031633  0.25589992  0.80224751     0.15000
C721        C  0.19263607  0.04583861  0.87332536    -0.05000
C722        C  0.15232585  0.00580197  0.88385531    -0.05000
C723        C  0.11194326  0.98222078  0.86462070    -0.23100
C724        C  0.11092409  0.99923719  0.83489096     0.19100
C725        C  0.15270389  0.03797981  0.82409781     0.16300
C726        C  0.19345811  0.05983825  0.84303734    -0.18200
C727        C  0.15183113  0.05696807  0.79511340    -0.20000
C728        C  0.10926850  0.03898469  0.77707992    -0.12600
C729        C  0.06734647  0.00015574  0.78705750     0.04100
C730        C  0.06833762  0.98018773  0.81612504    -0.24700
H731        H  0.15036341  0.99486843  0.90723201     0.09200
H732        H  0.08035354  0.95254722  0.87341958     0.12800
H733        H  0.22444632  0.09074729  0.83475538     0.12700
H734        H  0.18332281  0.08724339  0.78678270     0.12500
H735        H  0.10867472  0.05642407  0.75540701     0.13000
H736        H  0.03574037  0.95092534  0.82427086     0.15000
C737        C  0.80581382  0.75648981  0.64695017    -0.05000
C738        C  0.77290869  0.76154512  0.67081081    -0.05000
C739        C  0.79165694  0.79260443  0.69558266    -0.23100
C740        C  0.84372089  0.81863785  0.69701295     0.19100
C741        C  0.87786385  0.80846145  0.67500522     0.16300
C742        C  0.85877009  0.77721385  0.65021313    -0.18200
C743        C  0.92995943  0.83337880  0.67665028    -0.20000
C744        C  0.94743772  0.87091245  0.69832025    -0.12600
C745        C  0.91333287  0.88529578  0.71857047     0.04100
C746        C  0.86151910  0.85740541  0.71850321    -0.24700
H747        H  0.73188896  0.74638368  0.66867636     0.09200
H748        H  0.76487821  0.79911993  0.71245613     0.12800
H749        H  0.88432771  0.77388644  0.63179470     0.12700
H750        H  0.95692611  0.82551149  0.66032855     0.12500
H751        H  0.98777522  0.89047505  0.69825207     0.13000
H752        H  0.83425040  0.86806362  0.73327643     0.15000
C753        C  0.98987052  0.22023530  0.64397332    -0.05000
C754        C  0.00940859  0.18341744  0.62959491    -0.05000
C755        C  0.00070641  0.13475222  0.64171724    -0.23100
C756        C  0.97253404  0.12220851  0.66860408     0.19100
C757        C  0.94872586  0.15745069  0.68160280     0.16300
C758        C  0.95755511  0.20622475  0.66923814    -0.18200
C759        C  0.91962030  0.14458372  0.70802167    -0.20000
C760        C  0.91818601  0.09950793  0.72293431    -0.12600
C761        C  0.94714613  0.06690948  0.71240421     0.04100
C762        C  0.97112999  0.07692211  0.68390978    -0.24700
H763        H  0.03548268  0.19375055  0.61063128     0.09200
H764        H  0.01900230  0.10817729  0.63122027     0.12800
H765        H  0.94326157  0.23473087  0.68086722     0.12700
H766        H  0.89990298  0.17047193  0.71795742     0.12500
H767        H  0.89695454  0.09177028  0.74392167     0.13000
H768        H  0.99167617  0.05173454  0.67442568     0.15000
C769        C  0.06844588  0.97464377  0.71915289    -0.05000
C770        C  0.10238258  0.94919282  0.73119139    -0.05000
C771        C  0.14886893  0.95075587  0.71673289    -0.23100
C772        C  0.16143353  0.97621814  0.68938204     0.19100
C773        C  0.12519670  0.99698518  0.67543697     0.16300
C774        C  0.07916373  0.99625178  0.69047974    -0.18200
C775        C  0.13698385  0.02089604  0.64750943    -0.20000
C776        C  0.18591693  0.02822683  0.63489225    -0.12600
C777        C  0.22370616  0.01229823  0.65021064     0.04100
C778        C  0.21065809  0.98422674  0.67673043    -0.24700
H779        H  0.09386704  0.92961468  0.75241992     0.09200
H780        H  0.17560455  0.93340232  0.72739235     0.12800
H781        H  0.05333895  0.01499381  0.68045116     0.12700
H782        H  0.10939336  0.03645686  0.63629595     0.12500
H783        H  0.19561404  0.05043805  0.61459963     0.13000
H784        H  0.23994598  0.97214802  0.68864435     0.15000
loop_ 
_geom_bond_atom_site_label_1 
_geom_bond_atom_site_label_2 
_geom_bond_distance 
_geom_bond_site_symmetry_2 
_ccdc_geom_bond_type 
C1            H2   1.108       .  S
C1            C7   1.533       .  S
C1            C6   1.552   1_565  S
C1            C5   1.549   1_655  S
C3            H4   1.111       .  S
C3            C9   1.539   1_565  S
C3            C8   1.534   1_655  S
C3           C10   1.550       .  S
C5            C8   1.384       .  D
C5          C769   1.497       .  S
C6            C9   1.386       .  D
C6          C761   1.515       .  S
C7           C10   1.376       .  D
C7          C745   1.501       .  S
C8          C729   1.493   1_565  S
C9          C705   1.506       .  S
C10         C689   1.482       .  S
O11         Ni17   1.923       .  S
O11          C32   1.270       .  A
O12         Ni35   1.908       .  S
O12          C21   1.269       .  A
O13         Ni17   1.903       .  S
O13         Ni35   1.899   1_554  S
O13         Ni29   1.907       .  S
O13          H36   0.967       .  S
C14          O31   1.273       .  A
C14          O23   1.276       .  A
C14         C601   1.471       .  S
O15         Ni34   1.935       .  S
O15          C21   1.275       .  A
O16         Ni34   1.911   1_554  S
O16          C18   1.269       .  A
Ni17         O20   1.921       .  S
Ni17         O22   1.907   1_554  S
C18          O28   1.280       .  A
C18         C617   1.491       .  S
O19         Ni35   1.919   1_554  S
O19          C25   1.277       .  A
O20          C25   1.278       .  A
C21         C633   1.487       .  S
O22          C24   1.269       .  A
O23         Ni34   1.937       .  S
C24          O30   1.274       .  A
C24         C641   1.492       .  S
C25         C657   1.481       .  S
H26          O27   0.966       .  S
O27         Ni35   1.918       .  S
O27         Ni29   1.920   1_556  S
O27         Ni34   1.908       .  S
O28         Ni29   1.963       .  S
Ni29         O33   1.924       .  S
Ni29         O31   1.915   1_554  S
O30         Ni35   1.938       .  S
C32          O33   1.273       .  A
C32         C673   1.483       .  S
N37          C41   1.361       .  A
N37          C38   1.361       .  A
N37         C625   1.452       .  S
C38         C697   1.475       .  S
C38          C39   1.382       .  A
C39          C40   1.368       .  A
C39          H42   1.083       .  S
C40          C41   1.379       .  A
C40          H43   1.083       .  S
C41         C585   1.476       .  S
O44         Ni50   1.933       .  S
O44          C65   1.271       .  A
O45         Ni68   1.920       .  S
O45          C54   1.276       .  A
O46         Ni50   1.900       .  S
O46         Ni68   1.908   1_556  S
O46         Ni62   1.918   1_556  S
O46          H69   0.966       .  S
C47          O64   1.278       .  A
C47          O56   1.280       .  A
C47         C569   1.496       .  S
O48         Ni67   1.930       .  S
O48          C54   1.274       .  A
O49         Ni67   1.904       .  S
O49          C51   1.269   1_554  A
Ni50         O53   1.923       .  S
Ni50         O55   1.902       .  S
C51          O61   1.273       .  A
C51         C529   1.486       .  S
O52         Ni68   1.938   1_556  S
O52          C58   1.280       .  A
O53          C58   1.277       .  A
C54         C545   1.482       .  S
O55          C57   1.270   1_556  A
O56         Ni67   1.941       .  S
C57          O63   1.279       .  A
C57         C521   1.487       .  S
C58         C497   1.483       .  S
H59          O60   0.966       .  S
O60         Ni68   1.919       .  S
O60         Ni62   1.891       .  S
O60         Ni67   1.897       .  S
O61         Ni62   1.933   1_556  S
Ni62         O66   1.893   1_554  S
Ni62         O64   1.923       .  S
O63         Ni68   1.940       .  S
C65          O66   1.265       .  A
C65         C577   1.462       .  S
N70          C74   1.364       .  A
N70          C71   1.370       .  A
N70         C609   1.458       .  S
C71         C481   1.485       .  S
C71          C72   1.384       .  A
C72          C73   1.364       .  A
C72          H75   1.083       .  S
C73          C74   1.376       .  A
C73          H76   1.083       .  S
C74         C513   1.476       .  S
N77          C81   1.356       .  A
N77          C78   1.360       .  A
N77         C537   1.433       .  S
C78         C721   1.484       .  S
C78          C79   1.386       .  A
C79          C80   1.370       .  A
C79          H82   1.082       .  S
C80          C81   1.378       .  A
C80          H83   1.082       .  S
C81         C593   1.475       .  S
N84          C88   1.355       .  A
N84          C85   1.362       .  A
N84         C553   1.440       .  S
C85         C465   1.488       .  S
C85          C86   1.388       .  A
C86          C87   1.371       .  A
C86          H89   1.082       .  S
C87          C88   1.377       .  A
C87          H90   1.082       .  S
C88         C665   1.469       .  S
N91          C95   1.361       .  A
N91          C92   1.368       .  A
N91         C649   1.436   1_455  S
C92         C713   1.502       .  S
C92          C93   1.388       .  A
C93          C94   1.368       .  A
C93          H96   1.082       .  S
C94          C95   1.378       .  A
C94          H97   1.082       .  S
C95         C505   1.485       .  S
N98         C102   1.362   1_545  A
N98          C99   1.363   1_545  A
N98         C681   1.441       .  S
C99         C457   1.487   1_565  S
C99         C100   1.383       .  A
C100        C101   1.374       .  A
C100        H103   1.082       .  S
C101        C102   1.380       .  A
C101        H104   1.082       .  S
C102        C561   1.485       .  S
O105       Ni111   1.949       .  S
O105        C126   1.276       .  A
O106       Ni129   1.923       .  S
O106        C115   1.271       .  A
O107       Ni111   1.920       .  S
O107       Ni129   1.918       .  S
O107       Ni123   1.921       .  S
O107        H130   0.966       .  S
C108        O125   1.274       .  A
C108        O117   1.278       .  A
C108        C425   1.488       .  S
O109       Ni128   1.929       .  S
O109        C115   1.271       .  A
O110       Ni128   1.915       .  S
O110        C112   1.268       .  A
Ni111       O114   1.942       .  S
Ni111       O116   1.917       .  S
C112        O122   1.272       .  A
C112        C353   1.491       .  S
O113       Ni129   1.909       .  S
O113        C119   1.270       .  A
O114        C119   1.275       .  A
C115        C369   1.485       .  S
O116        C118   1.275       .  A
O117       Ni128   1.935       .  S
C118        O124   1.281       .  A
C118        C401   1.494       .  S
C119        C385   1.476       .  S
H120        O121   0.966       .  S
O121       Ni129   1.908       .  S
O121       Ni123   1.903       .  S
O121       Ni128   1.926       .  S
O122       Ni123   1.926       .  S
Ni123       O127   1.902       .  S
Ni123       O125   1.912       .  S
O124       Ni129   1.959       .  S
C126        O127   1.267       .  A
C126        C433   1.489       .  S
N131        C135   1.358       .  A
N131        C132   1.362       .  A
N131        C441   1.446       .  S
C132        C737   1.482       .  S
C132        C133   1.388       .  A
C133        C134   1.368       .  A
C133        H136   1.083       .  S
C134        C135   1.377       .  A
C134        H137   1.082       .  S
C135        C337   1.478       .  S
O138       Ni144   1.933       .  S
O138        C159   1.276       .  A
O139       Ni162   1.888       .  S
O139        C148   1.260       .  A
O140       Ni144   1.923       .  S
O140       Ni162   1.902       .  S
O140       Ni156   1.931       .  S
O140        H163   0.966       .  S
C141        O158   1.281       .  A
C141        O150   1.274       .  A
C141        C257   1.472       .  S
O142       Ni161   1.937       .  S
O142        C148   1.270       .  A
O143       Ni161   1.903       .  S
O143        C145   1.270       .  A
Ni144       O147   1.952       .  S
Ni144       O149   1.915       .  S
C145        O155   1.276       .  A
C145        C273   1.484       .  S
O146       Ni162   1.884       .  S
O146        C152   1.263       .  A
O147        C152   1.276       .  A
C148        C345   1.466       .  S
O149        C151   1.272       .  A
O150       Ni161   1.910       .  S
C151        O157   1.276       .  A
C151        C289   1.486       .  S
C152        C313   1.481       .  S
H153        O154   0.966       .  S
O154       Ni162   1.895       .  S
O154       Ni156   1.911       .  S
O154       Ni161   1.912       .  S
O155       Ni156   1.933       .  S
Ni156       O160   1.923       .  S
Ni156       O158   1.939       .  S
O157       Ni162   1.935       .  S
C159        O160   1.276       .  A
C159        C321   1.479       .  S
N164        C168   1.355       .  A
N164        C165   1.355       .  A
N164        C297   1.437   1_545  S
C165        C777   1.473       .  S
C165        C166   1.382       .  A
C166        C167   1.373       .  A
C166        H169   1.082       .  S
C167        C168   1.380       .  A
C167        H170   1.082       .  S
C168        C393   1.473       .  S
N171        C175   1.362       .  A
N171        C172   1.361       .  A
N171        C361   1.439   1_455  S
C172        C753   1.482   1_455  S
C172        C173   1.382       .  A
C173        C174   1.373       .  A
C173        H176   1.082       .  S
C174        C175   1.383       .  A
C174        H177   1.082       .  S
C175        C265   1.491       .  S
N178        C182   1.363       .  A
N178        C179   1.366       .  A
N178        C329   1.450   1_655  S
C179        C249   1.481       .  S
C179        C180   1.382       .  A
C180        C181   1.370       .  A
C180        H183   1.083       .  S
C181        C182   1.380       .  A
C181        H184   1.082       .  S
C182        C417   1.478       .  S
N185        C189   1.362       .  A
N185        C186   1.364       .  A
N185        C409   1.454       .  S
C186        C233   1.478       .  S
C186        C187   1.383       .  A
C187        C188   1.365       .  A
C187        H190   1.083       .  S
C188        C189   1.377       .  A
C188        H191   1.083       .  S
C189        C281   1.471       .  S
N192        C196   1.359       .  A
N192        C193   1.367       .  A
N192        C377   1.440   1_565  S
C193        C209   1.497       .  S
C193        C194   1.388       .  A
C194        C195   1.369       .  A
C194        H197   1.083       .  S
C195        C196   1.376       .  A
C195        H198   1.082       .  S
C196        C305   1.474       .  S
C199        H200   1.110       .  S
C199        C205   1.547       .  S
C199        C204   1.549       .  S
C199        C203   1.543       .  S
C201        H202   1.109       .  S
C201        C207   1.550   1_455  S
C201        C206   1.543       .  S
C201        C208   1.543       .  S
C203        C206   1.373       .  D
C203        C489   1.499       .  S
C204        C207   1.389   1_455  D
C204        C449   1.517   1_455  S
C205        C208   1.384       .  D
C205        C473   1.488   1_545  S
C206        C225   1.496       .  S
C207        C217   1.500       .  S
C208        C241   1.506   1_545  S
C209        C210   1.409       .  A
C209        C214   1.412   1_565  A
C210        C211   1.392       .  A
C210        H219   1.083       .  S
C211        C212   1.397   1_565  A
C211        H220   1.084       .  S
C212        C218   1.402       .  A
C212        C213   1.412       .  A
C213        C215   1.406       .  A
C213        C214   1.416       .  A
C214        H221   1.077       .  S
C215        C216   1.406       .  A
C215        H222   1.083       .  S
C216        C217   1.407       .  A
C216        H223   1.083       .  S
C217        C218   1.407       .  A
C218        H224   1.082       .  S
C225        C226   1.407       .  A
C225        C230   1.408       .  A
C226        C227   1.396       .  A
C226        H235   1.083       .  S
C227        C228   1.399       .  A
C227        H236   1.084       .  S
C228        C234   1.406       .  A
C228        C229   1.414       .  A
C229        C231   1.404       .  A
C229        C230   1.412       .  A
C230        H237   1.079       .  S
C231        C232   1.402       .  A
C231        H238   1.083       .  S
C232        C233   1.405       .  A
C232        H239   1.083       .  S
C233        C234   1.404       .  A
C234        H240   1.085       .  S
C241        C242   1.408       .  A
C241        C246   1.414       .  A
C242        C243   1.396   1_455  A
C242        H251   1.080   1_455  S
C243        C244   1.399   1_655  A
C243        H252   1.084       .  S
C244        C250   1.405   1_455  A
C244        C245   1.413       .  A
C245        C247   1.406       .  A
C245        C246   1.411       .  A
C246        H253   1.083       .  S
C247        C248   1.404       .  A
C247        H254   1.084       .  S
C248        C249   1.405   1_455  A
C248        H255   1.083       .  S
C249        C250   1.404       .  A
C250        H256   1.085       .  S
C257        C258   1.403       .  A
C257        C262   1.407       .  A
C258        C259   1.396       .  A
C258        H267   1.084       .  S
C259        C260   1.402       .  A
C259        H268   1.084       .  S
C260        C266   1.404       .  A
C260        C261   1.414       .  A
C261        C263   1.405       .  A
C261        C262   1.410       .  A
C262        H269   1.084       .  S
C263        C264   1.402       .  A
C263        H270   1.083       .  S
C264        C265   1.406       .  A
C264        H271   1.082       .  S
C265        C266   1.407       .  A
C266        H272   1.084       .  S
C273        C274   1.405       .  A
C273        C278   1.412       .  A
C274        C275   1.396       .  A
C274        H283   1.083       .  S
C275        C276   1.402       .  A
C275        H284   1.084       .  S
C276        C282   1.400       .  A
C276        C277   1.413       .  A
C277        C279   1.406       .  A
C277        C278   1.403       .  A
C278        H285   1.084       .  S
C279        C280   1.400       .  A
C279        H286   1.083       .  S
C280        C281   1.401       .  A
C280        H287   1.083       .  S
C281        C282   1.402       .  A
C282        H288   1.085       .  S
C289        C290   1.407       .  A
C289        C294   1.411       .  A
C290        C291   1.395       .  A
C290        H299   1.083       .  S
C291        C292   1.400       .  A
C291        H300   1.084       .  S
C292        C298   1.401       .  A
C292        C293   1.414       .  A
C293        C295   1.408       .  A
C293        C294   1.410       .  A
C294        H301   1.084       .  S
C295        C296   1.404   1_565  A
C295        H302   1.083       .  S
C296        C297   1.401   1_545  A
C296        H303   1.082       .  S
C297        C298   1.402       .  A
C298        H304   1.084       .  S
C305        C306   1.403       .  A
C305        C310   1.401       .  A
C306        C307   1.399       .  A
C306        H315   1.083       .  S
C307        C308   1.402       .  A
C307        H316   1.083       .  S
C308        C314   1.409       .  A
C308        C309   1.417       .  A
C309        C311   1.399       .  A
C309        C310   1.405       .  A
C310        H317   1.085       .  S
C311        C312   1.394       .  A
C311        H318   1.084       .  S
C312        C313   1.407       .  A
C312        H319   1.082       .  S
C313        C314   1.405       .  A
C314        H320   1.084       .  S
C321        C322   1.403       .  A
C321        C326   1.406       .  A
C322        C323   1.404       .  A
C322        H331   1.083       .  S
C323        C324   1.406       .  A
C323        H332   1.083       .  S
C324        C330   1.411       .  A
C324        C325   1.413       .  A
C325        C327   1.402       .  A
C325        C326   1.407       .  A
C326        H333   1.085       .  S
C327        C328   1.398       .  A
C327        H334   1.084       .  S
C328        C329   1.405       .  A
C328        H335   1.080       .  S
C329        C330   1.411       .  A
C330        H336   1.082   1_455  S
C337        C338   1.404       .  A
C337        C342   1.403       .  A
C338        C339   1.395       .  A
C338        H347   1.081       .  S
C339        C340   1.400       .  A
C339        H348   1.084       .  S
C340        C346   1.404       .  A
C340        C341   1.416       .  A
C341        C343   1.401       .  A
C341        C342   1.402       .  A
C342        H349   1.084       .  S
C343        C344   1.395       .  A
C343        H350   1.084       .  S
C344        C345   1.403       .  A
C344        H351   1.082       .  S
C345        C346   1.400       .  A
C346        H352   1.084       .  S
C353        C354   1.407       .  A
C353        C358   1.414       .  A
C354        C355   1.394       .  A
C354        H363   1.083       .  S
C355        C356   1.399       .  A
C355        H364   1.084       .  S
C356        C362   1.402       .  A
C356        C357   1.413       .  A
C357        C359   1.408       .  A
C357        C358   1.412       .  A
C358        H365   1.084       .  S
C359        C360   1.405       .  A
C359        H366   1.083       .  S
C360        C361   1.403       .  A
C360        H367   1.082       .  S
C361        C362   1.402       .  A
C362        H368   1.084       .  S
C369        C370   1.406       .  A
C369        C374   1.407       .  A
C370        C371   1.404       .  A
C370        H379   1.083       .  S
C371        C372   1.406       .  A
C371        H380   1.083       .  S
C372        C378   1.411       .  A
C372        C373   1.413       .  A
C373        C375   1.401       .  A
C373        C374   1.403       .  A
C374        H381   1.084       .  S
C375        C376   1.395       .  A
C375        H382   1.084       .  S
C376        C377   1.402       .  A
C376        H383   1.083   1_545  S
C377        C378   1.409       .  A
C378        H384   1.083       .  S
C385        C386   1.404       .  A
C385        C390   1.406       .  A
C386        C387   1.398       .  A
C386        H395   1.083       .  S
C387        C388   1.402       .  A
C387        H396   1.084       .  S
C388        C394   1.405       .  A
C388        C389   1.415       .  A
C389        C391   1.403       .  A
C389        C390   1.406       .  A
C390        H397   1.085       .  S
C391        C392   1.399       .  A
C391        H398   1.084       .  S
C392        C393   1.402       .  A
C392        H399   1.083       .  S
C393        C394   1.403       .  A
C394        H400   1.084       .  S
C401        C402   1.407       .  A
C401        C406   1.412       .  A
C402        C403   1.401       .  A
C402        H411   1.083       .  S
C403        C404   1.403       .  A
C403        H412   1.084       .  S
C404        C410   1.411       .  A
C404        C405   1.413       .  A
C405        C407   1.404       .  A
C405        C406   1.412       .  A
C406        H413   1.084       .  S
C407        C408   1.402       .  A
C407        H414   1.084       .  S
C408        C409   1.409       .  A
C408        H415   1.082       .  S
C409        C410   1.411       .  A
C410        H416   1.082       .  S
C417        C418   1.404       .  A
C417        C422   1.404       .  A
C418        C419   1.395       .  A
C418        H427   1.084       .  S
C419        C420   1.401       .  A
C419        H428   1.084       .  S
C420        C426   1.404       .  A
C420        C421   1.415       .  A
C421        C423   1.403       .  A
C421        C422   1.410       .  A
C422        H429   1.084       .  S
C423        C424   1.402       .  A
C423        H430   1.083       .  S
C424        C425   1.408       .  A
C424        H431   1.083       .  S
C425        C426   1.408       .  A
C426        H432   1.084       .  S
C433        C434   1.406       .  A
C433        C438   1.412       .  A
C434        C435   1.397       .  A
C434        H443   1.084       .  S
C435        C436   1.402       .  A
C435        H444   1.084       .  S
C436        C442   1.405       .  A
C436        C437   1.413       .  A
C437        C439   1.408       .  A
C437        C438   1.415       .  A
C438        H445   1.084       .  S
C439        C440   1.406       .  A
C439        H446   1.083       .  S
C440        C441   1.404       .  A
C440        H447   1.082       .  S
C441        C442   1.408       .  A
C442        H448   1.084       .  S
C449        C450   1.410       .  A
C449        C454   1.418       .  A
C450        C451   1.393       .  A
C450        H459   1.076       .  S
C451        C452   1.396       .  A
C451        H460   1.084   1_545  S
C452        C458   1.407       .  A
C452        C453   1.413       .  A
C453        C455   1.408       .  A
C453        C454   1.420       .  A
C454        H461   1.083       .  S
C455        C456   1.409       .  A
C455        H462   1.083       .  S
C456        C457   1.405       .  A
C456        H463   1.083       .  S
C457        C458   1.404       .  A
C458        H464   1.085   1_545  S
C465        C466   1.409       .  A
C465        C470   1.406       .  A
C466        C467   1.392       .  A
C466        H475   1.083       .  S
C467        C468   1.397       .  A
C467        H476   1.084       .  S
C468        C474   1.397       .  A
C468        C469   1.411       .  A
C469        C471   1.402   1_655  A
C469        C470   1.405       .  A
C470        H477   1.074       .  S
C471        C472   1.398       .  A
C471        H478   1.084       .  S
C472        C473   1.405       .  A
C472        H479   1.080       .  S
C473        C474   1.405   1_455  A
C474        H480   1.083       .  S
C481        C482   1.407       .  A
C481        C486   1.408       .  A
C482        C483   1.402       .  A
C482        H491   1.084       .  S
C483        C484   1.403       .  A
C483        H492   1.083       .  S
C484        C490   1.414       .  A
C484        C485   1.414       .  A
C485        C487   1.402       .  A
C485        C486   1.413       .  A
C486        H493   1.084       .  S
C487        C488   1.401       .  A
C487        H494   1.083       .  S
C488        C489   1.405       .  A
C488        H495   1.081       .  S
C489        C490   1.409       .  A
C490        H496   1.082       .  S
C497        C498   1.406       .  A
C497        C502   1.405       .  A
C498        C499   1.404       .  A
C498        H507   1.083       .  S
C499        C500   1.405       .  A
C499        H508   1.083       .  S
C500        C506   1.415       .  A
C500        C501   1.416       .  A
C501        C503   1.400       .  A
C501        C502   1.407       .  A
C502        H509   1.085       .  S
C503        C504   1.395       .  A
C503        H510   1.084       .  S
C504        C505   1.405       .  A
C504        H511   1.084       .  S
C505        C506   1.408       .  A
C506        H512   1.084       .  S
C513        C514   1.401       .  A
C513        C518   1.406       .  A
C514        C515   1.400       .  A
C514        H523   1.083       .  S
C515        C516   1.406       .  A
C515        H524   1.083       .  S
C516        C522   1.403       .  A
C516        C517   1.412       .  A
C517        C519   1.404       .  A
C517        C518   1.403       .  A
C518        H525   1.085       .  S
C519        C520   1.400       .  A
C519        H526   1.084       .  S
C520        C521   1.405       .  A
C520        H527   1.083       .  S
C521        C522   1.413       .  A
C522        H528   1.084       .  S
C529        C530   1.407       .  A
C529        C534   1.407       .  A
C530        C531   1.403       .  A
C530        H539   1.083       .  S
C531        C532   1.405       .  A
C531        H540   1.083       .  S
C532        C538   1.409       .  A
C532        C533   1.414       .  A
C533        C535   1.401       .  A
C533        C534   1.401       .  A
C534        H541   1.084   1_556  S
C535        C536   1.393   1_565  A
C535        H542   1.084       .  S
C536        C537   1.400       .  A
C536        H543   1.083       .  S
C537        C538   1.405   1_545  A
C538        H544   1.084   1_565  S
C545        C546   1.403       .  A
C545        C550   1.410       .  A
C546        C547   1.401       .  A
C546        H555   1.083       .  S
C547        C548   1.404       .  A
C547        H556   1.083       .  S
C548        C554   1.405   1_455  A
C548        C549   1.412       .  A
C549        C551   1.403       .  A
C549        C550   1.403       .  A
C550        H557   1.085       .  S
C551        C552   1.397   1_455  A
C551        H558   1.084       .  S
C552        C553   1.403       .  A
C552        H559   1.083       .  S
C553        C554   1.405       .  A
C554        H560   1.081       .  S
C561        C562   1.404       .  A
C561        C566   1.404       .  A
C562        C563   1.402       .  A
C562        H571   1.083       .  S
C563        C564   1.405       .  A
C563        H572   1.083       .  S
C564        C570   1.413       .  A
C564        C565   1.415       .  A
C565        C567   1.401       .  A
C565        C566   1.410       .  A
C566        H573   1.084       .  S
C567        C568   1.399       .  A
C567        H574   1.084       .  S
C568        C569   1.409       .  A
C568        H575   1.083       .  S
C569        C570   1.412       .  A
C570        H576   1.084       .  S
C577        C578   1.402       .  A
C577        C582   1.399       .  A
C578        C579   1.396       .  A
C578        H587   1.084   1_556  S
C579        C580   1.402       .  A
C579        H588   1.084   1_556  S
C580        C586   1.403       .  A
C580        C581   1.417       .  A
C581        C583   1.400       .  A
C581        C582   1.403       .  A
C582        H589   1.084       .  S
C583        C584   1.395       .  A
C583        H590   1.084       .  S
C584        C585   1.404       .  A
C584        H591   1.083       .  S
C585        C586   1.403       .  A
C586        H592   1.084       .  S
C593        C594   1.402       .  A
C593        C598   1.405       .  A
C594        C595   1.395       .  A
C594        H603   1.083       .  S
C595        C596   1.402       .  A
C595        H604   1.084   1_556  S
C596        C602   1.402       .  A
C596        C597   1.415       .  A
C597        C599   1.406       .  A
C597        C598   1.408       .  A
C598        H605   1.084       .  S
C599        C600   1.402       .  A
C599        H606   1.083       .  S
C600        C601   1.402       .  A
C600        H607   1.083       .  S
C601        C602   1.404       .  A
C602        H608   1.085   1_556  S
C609        C610   1.410       .  A
C609        C614   1.414       .  A
C610        C611   1.402       .  A
C610        H619   1.082       .  S
C611        C612   1.403       .  A
C611        H620   1.084       .  S
C612        C618   1.412       .  A
C612        C613   1.413       .  A
C613        C615   1.405       .  A
C613        C614   1.413       .  A
C614        H621   1.082       .  S
C615        C616   1.403       .  A
C615        H622   1.084       .  S
C616        C617   1.407       .  A
C616        H623   1.083       .  S
C617        C618   1.410       .  A
C618        H624   1.084       .  S
C625        C626   1.410       .  A
C625        C630   1.408       .  A
C626        C627   1.400       .  A
C626        H635   1.082       .  S
C627        C628   1.401       .  A
C627        H636   1.084       .  S
C628        C634   1.409       .  A
C628        C629   1.413       .  A
C629        C631   1.401       .  A
C629        C630   1.406       .  A
C630        H637   1.077       .  S
C631        C632   1.397       .  A
C631        H638   1.084       .  S
C632        C633   1.408       .  A
C632        H639   1.083       .  S
C633        C634   1.409       .  A
C634        H640   1.084       .  S
C641        C642   1.408       .  A
C641        C646   1.409       .  A
C642        C643   1.405       .  A
C642        H651   1.083       .  S
C643        C644   1.405       .  A
C643        H652   1.083       .  S
C644        C650   1.411       .  A
C644        C645   1.414       .  A
C645        C647   1.402       .  A
C645        C646   1.403       .  A
C646        H653   1.084       .  S
C647        C648   1.394       .  A
C647        H654   1.084       .  S
C648        C649   1.401       .  A
C648        H655   1.083   1_655  S
C649        C650   1.407       .  A
C650        H656   1.084       .  S
C657        C658   1.407       .  A
C657        C662   1.409       .  A
C658        C659   1.395       .  A
C658        H667   1.083       .  S
C659        C660   1.401       .  A
C659        H668   1.084       .  S
C660        C666   1.400       .  A
C660        C661   1.413       .  A
C661        C663   1.404       .  A
C661        C662   1.402       .  A
C662        H669   1.084       .  S
C663        C664   1.398       .  A
C663        H670   1.084       .  S
C664        C665   1.401       .  A
C664        H671   1.083       .  S
C665        C666   1.401       .  A
C666        H672   1.084       .  S
C673        C674   1.408       .  A
C673        C678   1.406       .  A
C674        C675   1.398       .  A
C674        H683   1.083       .  S
C675        C676   1.401       .  A
C675        H684   1.084       .  S
C676        C682   1.408       .  A
C676        C677   1.416       .  A
C677        C679   1.402       .  A
C677        C678   1.408       .  A
C678        H685   1.084       .  S
C679        C680   1.398       .  A
C679        H686   1.084       .  S
C680        C681   1.404       .  A
C680        H687   1.083       .  S
C681        C682   1.404       .  A
C682        H688   1.084       .  S
C689        C690   1.402       .  A
C689        C694   1.406       .  A
C690        C691   1.396       .  A
C690        H699   1.083       .  S
C691        C692   1.402       .  A
C691        H700   1.084       .  S
C692        C698   1.403       .  A
C692        C693   1.415       .  A
C693        C695   1.406       .  A
C693        C694   1.410       .  A
C694        H701   1.084       .  S
C695        C696   1.403       .  A
C695        H702   1.083       .  S
C696        C697   1.402       .  A
C696        H703   1.083       .  S
C697        C698   1.404       .  A
C698        H704   1.085       .  S
C705        C706   1.408   1_655  A
C705        C710   1.415       .  A
C706        C707   1.389       .  A
C706        H715   1.083       .  S
C707        C708   1.397       .  A
C707        H716   1.084       .  S
C708        C714   1.399       .  A
C708        C709   1.411   1_455  A
C709        C711   1.410       .  A
C709        C710   1.420       .  A
C710        H717   1.083       .  S
C711        C712   1.413       .  A
C711        H718   1.083       .  S
C712        C713   1.408   1_655  A
C712        H719   1.078       .  S
C713        C714   1.409       .  A
C714        H720   1.084       .  S
C721        C722   1.405       .  A
C721        C726   1.403       .  A
C722        C723   1.409   1_545  A
C722        H731   1.082   1_545  S
C723        C724   1.410       .  A
C723        H732   1.083       .  S
C724        C730   1.414       .  A
C724        C725   1.412   1_565  A
C725        C727   1.398       .  A
C725        C726   1.397       .  A
C726        H733   1.085       .  S
C727        C728   1.390       .  A
C727        H734   1.084       .  S
C728        C729   1.404       .  A
C728        H735   1.083       .  S
C729        C730   1.413   1_545  A
C730        H736   1.084       .  S
C737        C738   1.407       .  A
C737        C742   1.405       .  A
C738        C739   1.401       .  A
C738        H747   1.083       .  S
C739        C740   1.403       .  A
C739        H748   1.083       .  S
C740        C746   1.412       .  A
C740        C741   1.414       .  A
C741        C743   1.398       .  A
C741        C742   1.407       .  A
C742        H749   1.085       .  S
C743        C744   1.395       .  A
C743        H750   1.084       .  S
C744        C745   1.409       .  A
C744        H751   1.082       .  S
C745        C746   1.409       .  A
C746        H752   1.078       .  S
C753        C754   1.404   1_655  A
C753        C758   1.407       .  A
C754        C755   1.403       .  A
C754        H763   1.083       .  S
C755        C756   1.406   1_455  A
C755        H764   1.083       .  S
C756        C762   1.413       .  A
C756        C757   1.412       .  A
C757        C759   1.401       .  A
C757        C758   1.410       .  A
C758        H765   1.084       .  S
C759        C760   1.399       .  A
C759        H766   1.083       .  S
C760        C761   1.410       .  A
C760        H767   1.083       .  S
C761        C762   1.412       .  A
C762        H768   1.076       .  S
C769        C770   1.408       .  A
C769        C774   1.406       .  A
C770        C771   1.397       .  A
C770        H779   1.082       .  S
C771        C772   1.401       .  A
C771        H780   1.083       .  S
C772        C778   1.404       .  A
C772        C773   1.413       .  A
C773        C775   1.403   1_565  A
C773        C774   1.403       .  A
C774        H781   1.076   1_565  S
C775        C776   1.398       .  A
C775        H782   1.084       .  S
C776        C777   1.403       .  A
C776        H783   1.083       .  S
C777        C778   1.404   1_545  A
C778        H784   1.084       .  S
