geometry optimzed in LAMMPS
_audit_creation_date              2020-11-30 
_audit_creation_method            'lammps2cif' 
_symmetry_space_group_name_H-M    'P1' 
_symmetry_Int_Tables_number       1 
_symmetry_cell_setting            triclinic 
loop_ 
_symmetry_equiv_pos_as_xyz 
  x,y,z 
_cell_length_a                    30.35416117 
_cell_length_b                    30.249723377493435 
_cell_length_c                    44.88274586714667 
_cell_angle_alpha                 89.83331263033153 
_cell_angle_beta                  90.29755399766852 
_cell_angle_gamma                 91.34719437645094 
loop_ 
_atom_site_label 
_atom_site_type_symbol 
_atom_site_fract_x 
_atom_site_fract_y 
_atom_site_fract_z 
_atom_site_charge 
C1          C  0.33307365  0.99988001  0.75011577    -0.02500
O2          O  0.21070344  0.29815393  0.63320586    -0.73000
O3          O  0.11629470  0.30061696  0.57123868    -0.74000
O4          O  0.21201642  0.29983238  0.57020091    -0.62600
O5          O  0.12075375  0.30039355  0.63487841    -0.71000
O6          O  0.12104603  0.04048919  0.63331150    -0.70500
O7          O  0.21611051  0.03974604  0.57175071    -0.61800
O8          O  0.11994778  0.04057684  0.57002573    -0.74300
O9          O  0.21118870  0.03818332  0.63566926    -0.73100
Cu10       Cu  0.16476954  0.29725507  0.60189134     1.04600
Cu11       Cu  0.16727412  0.04237342  0.60222008     1.04300
C12         C  0.22222923  0.00069338  0.64620736     0.93200
C13         C  0.10180603  0.00397345  0.56167560     0.92400
C14         C  0.23043093  0.00307131  0.56208510     0.84500
C15         C  0.10957691  0.00408762  0.64576070     0.90800
O16         O  0.11844104  0.29333324  0.36790157    -0.73000
O17         O  0.21191009  0.29599936  0.43168216    -0.74000
O18         O  0.11581674  0.29561113  0.43151510    -0.62600
O19         O  0.20935417  0.29454155  0.36816059    -0.71000
O20         O  0.21146017  0.03451823  0.36777467    -0.70500
O21         O  0.11692059  0.03556345  0.42986632    -0.61800
O22         O  0.21288601  0.03598816  0.43105066    -0.74300
O23         O  0.12085276  0.03333908  0.36613462    -0.73100
Cu24       Cu  0.16381203  0.29232794  0.40030736     1.04600
Cu25       Cu  0.16547155  0.03736780  0.39912636     1.04300
C26         C  0.10838184  0.99616171  0.35512200     0.93200
C27         C  0.22881381  0.99962360  0.44034772     0.92400
C28         C  0.10014559  0.99920355  0.43965347     0.84500
C29         C  0.22251981  0.99776117  0.35646776     0.90800
O30         O  0.03915096  0.04802443  0.03106097    -0.73000
O31         O  0.03961789  0.28543879  0.96835303    -0.74000
O32         O  0.04027698  0.04824302  0.96847556    -0.63400
O33         O  0.03926018  0.28524378  0.03097405    -0.71000
O34         O  0.29946678  0.28380357  0.03047399    -0.70500
O35         O  0.30048360  0.04631581  0.96769473    -0.61800
O36         O  0.29983043  0.28370349  0.96800340    -0.74300
O37         O  0.29936820  0.04641819  0.03016102    -0.73100
Cu38       Cu  0.04214743  0.00012281  0.99973578     1.04600
Cu39       Cu  0.29730598  0.99835181  0.99905677     1.04300
C40         C  0.33574719  0.06349216  0.03957312     0.93200
C41         C  0.33638211  0.26828140  0.95922186     0.92400
C42         C  0.33716558  0.06360050  0.95911913     0.84500
C43         C  0.33591960  0.26818856  0.03968743     0.90800
O44         O  0.03696008  0.21205927  0.13284451    -0.73000
O45         O  0.03816377  0.11791003  0.07026587    -0.74000
O46         O  0.03849516  0.21407924  0.06957074    -0.62600
O47         O  0.03575230  0.12105581  0.13397202    -0.71000
O48         O  0.29601960  0.11863271  0.13142789    -0.70500
O49         O  0.29872188  0.21327435  0.06893949    -0.61800
O50         O  0.29843931  0.11735291  0.06822069    -0.74300
O51         O  0.29723525  0.20979607  0.13230859    -0.73100
Cu52       Cu  0.03990941  0.16625916  0.10125624     1.04600
Cu53       Cu  0.29510869  0.16474291  0.09974605     1.04300
C54         C  0.33363504  0.22291986  0.14414130     0.93200
C55         C  0.33521411  0.10139007  0.06026302     0.92400
C56         C  0.33553670  0.23005498  0.06032223     0.84500
C57         C  0.33182107  0.10799055  0.14431711     0.90800
C58         C  0.33125667  0.99946462  0.25015660    -0.02500
O59         O  0.30054623  0.11617591  0.92892198    -0.73000
O60         O  0.29805878  0.21118616  0.86729442    -0.74000
O61         O  0.30019878  0.12099691  0.86526840    -0.62600
O62         O  0.29974203  0.21207708  0.93035229    -0.71000
O63         O  0.03944780  0.21600142  0.92883667    -0.70500
O64         O  0.04006425  0.12124891  0.86698750    -0.61800
O65         O  0.03786020  0.21155929  0.86498590    -0.74300
O66         O  0.04029897  0.11988913  0.93015133    -0.73100
Cu67       Cu  0.29711398  0.16492543  0.89844807     1.04600
Cu68       Cu  0.04200654  0.16736260  0.89821270     1.04300
C69         C  0.33721643  0.10168311  0.93847186     0.93200
C70         C  0.33385734  0.22264913  0.85439398     0.92400
C71         C  0.33714550  0.10988827  0.85439382     0.84500
C72         C  0.33628694  0.23031688  0.93855698     0.90800
O73         O  0.28275204  0.29725385  0.47037799    -0.73000
O74         O  0.04613494  0.30000616  0.53279684    -0.74000
O75         O  0.28363043  0.29940498  0.53291372    -0.62600
O76         O  0.04534967  0.29707110  0.47020050    -0.71000
O77         O  0.04702987  0.03704027  0.46876651    -0.70500
O78         O  0.28544059  0.03938826  0.53203258    -0.61800
O79         O  0.04815783  0.03998185  0.53145545    -0.74300
O80         O  0.28429205  0.03724000  0.46933556    -0.73100
Cu81       Cu  0.33109612  0.29593513  0.50163414     1.04600
Cu82       Cu  0.33295583  0.04095882  0.50034164     1.04300
C83         C  0.26709226  0.00028085  0.46095995     0.93200
C84         C  0.06360710  0.00361624  0.54105212     0.92400
C85         C  0.26836288  0.00288701  0.54146538     0.84500
C86         C  0.06238277  0.00001444  0.46043486     0.90800
C87         C  0.29376918  0.25176347  0.18800037    -0.21300
C88         C  0.33327952  0.24791269  0.17236008    -0.09400
C89         C  0.03900583  0.26501527  0.18515850     0.29500
C90         C  0.03782604  0.28781752  0.21204512    -0.21300
C91         C  0.33129173  0.29402440  0.22751833    -0.09400
C92         C  0.29235233  0.27432919  0.21500841     0.29500
F93         F  0.25176264  0.28027029  0.22658074    -0.19900
H94         H  0.26324042  0.23811636  0.17894276     0.17900
H95         H  0.06824183  0.30342239  0.21975010     0.17900
F96         F  0.07836335  0.26134214  0.17126098    -0.19900
C97         C  0.02826719  0.09350827  0.19501228    -0.21300
C98         C  0.32976926  0.08415585  0.17298351    -0.09400
C99         C  0.29204277  0.05957298  0.18113489     0.29500
C100        C  0.28966746  0.04003281  0.20924356    -0.21300
C101        C  0.32645298  0.04045754  0.22879983    -0.09400
C102        C  0.02490009  0.07440539  0.22340330     0.29500
F103        F  0.04202917  0.09878493  0.24610747    -0.19900
H104        H  0.05330694  0.11898614  0.19118322     0.17900
H105        H  0.26013080  0.02135372  0.21459173     0.17900
F106        F  0.25784673  0.05346522  0.16184474    -0.19900
C107        C  0.27390451  0.29381895  0.28435872    -0.21300
C108        C  0.29314662  0.00013606  0.27299168    -0.09400
C109        C  0.28718758  0.03911326  0.28987568     0.29500
C110        C  0.26462693  0.03786394  0.31685268    -0.21300
C111        C  0.24771072  0.99791790  0.32837443    -0.09400
C112        C  0.25165655  0.29261794  0.31144799     0.29500
F113        F  0.23497104  0.25318199  0.32122143    -0.19900
H114        H  0.27865163  0.26244495  0.27365300     0.17900
H115        H  0.26145388  0.06837528  0.32914829     0.17900
F116        F  0.97261640  0.07833863  0.28162793    -0.19900
C117        C  0.07152430  0.02593205  0.27700283    -0.21300
C118        C  0.03873761  0.99354261  0.27129937    -0.09400
C119        C  0.04024663  0.28858858  0.28973108     0.29500
C120        C  0.06172738  0.28996989  0.31728452    -0.21300
C121        C  0.08525279  0.99477341  0.32611141    -0.09400
C122        C  0.09261905  0.02823805  0.30476685     0.29500
F123        F  0.12212650  0.06178614  0.30997583    -0.19900
H124        H  0.08437997  0.04671743  0.25971395     0.17900
H125        H  0.05973329  0.26125291  0.33173115     0.17900
F126        F  0.35371656  0.24990902  0.28146659    -0.19900
C127        C  0.31164433  0.07513667  0.77527278    -0.21300
C128        C  0.00658370  0.03927417  0.77196664    -0.09400
C129        C  0.04102265  0.03548373  0.79337989     0.29500
C130        C  0.03951878  0.05806519  0.82021956    -0.21300
C131        C  0.33857862  0.08668693  0.82582763    -0.09400
C132        C  0.30974103  0.09753357  0.80245159     0.29500
F133        F  0.28079810  0.13074531  0.80552754    -0.19900
H134        H  0.29198718  0.08726952  0.75724591     0.17900
H135        H  0.06437372  0.05192349  0.83704852     0.17900
F136        F  0.07361829  0.00605450  0.78981690    -0.19900
C137        C  0.02240779  0.25764525  0.77484235    -0.21300
C138        C  0.32713920  0.29338521  0.77186457    -0.09400
C139        C  0.29356817  0.29680237  0.79367311     0.29500
C140        C  0.29649907  0.27429718  0.82056407    -0.21300
C141        C  0.33124826  0.24595438  0.82581497    -0.09400
C142        C  0.02568468  0.23521354  0.80206303     0.29500
F143        F  0.05482175  0.20204880  0.80481891    -0.19900
H144        H  0.04126478  0.24566801  0.75655336     0.17900
H145        H  0.27233211  0.28024495  0.83768920     0.17900
F146        F  0.26063356  0.99263005  0.79046111    -0.19900
C147        C  0.07432841  0.31150545  0.72465958    -0.21300
C148        C  0.03865735  0.00653685  0.72800539    -0.09400
C149        C  0.03460460  0.04091019  0.70650356     0.29500
C150        C  0.05731220  0.03956917  0.67974910    -0.21300
C151        C  0.08609344  0.00537114  0.67419525    -0.09400
C152        C  0.09664688  0.30963096  0.69750883     0.29500
F153        F  0.12958041  0.28041996  0.69439691    -0.19900
H154        H  0.08645503  0.29175638  0.74263584     0.17900
H155        H  0.05116459  0.06448434  0.66293736     0.17900
F156        F  0.33833328  0.07339830  0.70995247    -0.19900
C157        C  0.25750493  0.02247226  0.72577203    -0.21300
C158        C  0.29310427  0.99374523  0.72862631    -0.09400
C159        C  0.29618056  0.29327702  0.70682213     0.29500
C160        C  0.27360166  0.29627703  0.67995796    -0.21300
C161        C  0.24553919  0.99795590  0.67478480    -0.09400
C162        C  0.23506046  0.02587186  0.69857930     0.29500
F163        F  0.20222252  0.05534933  0.69587129    -0.19900
H164        H  0.24577039  0.04145935  0.74411056     0.17900
H165        H  0.27936234  0.27200160  0.66279278     0.17900
F166        F  0.99187037  0.26012389  0.70999059    -0.19900
C167        C  0.33300300  0.33318733  0.75011287    -0.02500
O168        O  0.21070729  0.63144639  0.63320850    -0.73000
O169        O  0.11630362  0.63392514  0.57123706    -0.74000
O170        O  0.21202601  0.63313579  0.57020195    -0.62600
O171        O  0.12075721  0.63369149  0.63487629    -0.71000
O172        O  0.12096947  0.37383472  0.63331201    -0.70500
O173        O  0.21602763  0.37310562  0.57174492    -0.61800
O174        O  0.11986356  0.37393447  0.57002389    -0.74300
O175        O  0.21111377  0.37153027  0.63566407    -0.73100
Cu176      Cu  0.16477602  0.63055544  0.60189109     1.04600
Cu177      Cu  0.16719396  0.37572610  0.60221724     1.04300
C178        C  0.22216014  0.33403857  0.64619655     0.93200
C179        C  0.10172134  0.33733198  0.56167207     0.92400
C180        C  0.23034629  0.33643222  0.56207570     0.84500
C181        C  0.10950623  0.33743090  0.64576082     0.90800
O182        O  0.11844463  0.62665468  0.36789935    -0.73000
O183        O  0.21192176  0.62931564  0.43167606    -0.74000
O184        O  0.11582706  0.62892758  0.43151361    -0.62600
O185        O  0.20935818  0.62786835  0.36815271    -0.71000
O186        O  0.21137412  0.36784955  0.36776527    -0.70500
O187        O  0.11683803  0.36890905  0.42985811    -0.61800
O188        O  0.21280289  0.36933277  0.43104084    -0.74300
O189        O  0.12076805  0.36667528  0.36612805    -0.73100
Cu190      Cu  0.16381981  0.62564790  0.40030281     1.04600
Cu191      Cu  0.16538765  0.37070710  0.39911763     1.04300
C192        C  0.10829603  0.32949717  0.35511756     0.93200
C193        C  0.22873141  0.33296979  0.44033986     0.92400
C194        C  0.10006305  0.33255068  0.43964771     0.84500
C195        C  0.22243202  0.33109074  0.35645994     0.90800
O196        O  0.03910029  0.38135416  0.03106634    -0.73000
O197        O  0.03961343  0.61876520  0.96834906    -0.74000
O198        O  0.04022477  0.38157215  0.96848374    -0.63400
O199        O  0.03925522  0.61857376  0.03097106    -0.71000
O200        O  0.29946204  0.61714698  0.03047010    -0.70500
O201        O  0.30043120  0.37964439  0.96770284    -0.61800
O202        O  0.29982612  0.61704448  0.96799862    -0.74300
O203        O  0.29931735  0.37974588  0.03016877    -0.73100
Cu204      Cu  0.04209741  0.33345462  0.99974205     1.04600
Cu205      Cu  0.29725559  0.33167885  0.99906404     1.04300
C206        C  0.33569692  0.39682197  0.03957855     0.93200
C207        C  0.33637470  0.60161371  0.95921811     0.92400
C208        C  0.33711352  0.39692891  0.95912759     0.84500
C209        C  0.33591164  0.60152530  0.03968455     0.90800
O210        O  0.03693913  0.54538885  0.13284454    -0.73000
O211        O  0.03811960  0.45123661  0.07026883    -0.74000
O212        O  0.03847523  0.54740776  0.06957025    -0.62600
O213        O  0.03570460  0.45438448  0.13397411    -0.71000
O214        O  0.29597180  0.45197765  0.13142490    -0.70500
O215        O  0.29870234  0.54661910  0.06893717    -0.61800
O216        O  0.29839556  0.45069574  0.06821968    -0.74300
O217        O  0.29721425  0.54314262  0.13230647    -0.73100
Cu218      Cu  0.03987641  0.49958673  0.10125743     1.04600
Cu219      Cu  0.29507585  0.49808856  0.09974399     1.04300
C220        C  0.33361626  0.55625969  0.14413958     0.93200
C221        C  0.33516757  0.43472318  0.06026538     0.92400
C222        C  0.33552086  0.56339171  0.06032045     0.84500
C223        C  0.33176880  0.44132605  0.14431569     0.90800
C224        C  0.33117089  0.33279157  0.25015144    -0.02500
O225        O  0.30050017  0.44950958  0.92893162    -0.73000
O226        O  0.29803791  0.54450568  0.86729502    -0.74000
O227        O  0.30014959  0.45431439  0.86527845    -0.62600
O228        O  0.29972220  0.54541233  0.93035249    -0.71000
O229        O  0.03942842  0.54931780  0.92883629    -0.70500
O230        O  0.04001473  0.45454907  0.86699281    -0.61800
O231        O  0.03783926  0.54486125  0.86498705    -0.74300
O232        O  0.04025369  0.45320527  0.93015698    -0.73100
Cu233      Cu  0.29708006  0.49825295  0.89845323     1.04600
Cu234      Cu  0.04197285  0.50067044  0.89821557     1.04300
C235        C  0.33716798  0.43500951  0.93848010     0.93200
C236        C  0.33383945  0.55595804  0.85439438     0.92400
C237        C  0.33709144  0.44319329  0.85440257     0.84500
C238        C  0.33627138  0.56364497  0.93855556     0.90800
O239        O  0.28276195  0.63056638  0.47037570    -0.73000
O240        O  0.04614364  0.63331867  0.53279681    -0.74000
O241        O  0.28363903  0.63271294  0.53291263    -0.62600
O242        O  0.04536017  0.63038507  0.47020042    -0.71000
O243        O  0.04694681  0.37039154  0.46875760    -0.70500
O244        O  0.28535747  0.37274905  0.53202355    -0.61800
O245        O  0.04807607  0.37334064  0.53144746    -0.74300
O246        O  0.28420855  0.37059136  0.46932638    -0.73100
Cu247      Cu  0.33110557  0.62924702  0.50163325     1.04600
Cu248      Cu  0.33287313  0.37431463  0.50033263     1.04300
C249        C  0.26701029  0.33363080  0.46095182     0.93200
C250        C  0.06352290  0.33697547  0.54104725     0.92400
C251        C  0.26827835  0.33624844  0.54145633     0.84500
C252        C  0.06230048  0.33336461  0.46042884     0.90800
C253        C  0.29374924  0.58514282  0.18798531    -0.21300
C254        C  0.33326457  0.58125899  0.17235603    -0.09400
C255        C  0.03899568  0.59833700  0.18516283     0.29500
C256        C  0.03781762  0.62114495  0.21204762    -0.21300
C257        C  0.33128085  0.62737873  0.22751230    -0.09400
C258        C  0.29233416  0.60771328  0.21499129     0.29500
F259        F  0.25174266  0.61368075  0.22655357    -0.19900
H260        H  0.26321578  0.57151722  0.17892096     0.17900
H261        H  0.06824028  0.63672869  0.21975918     0.17900
F262        F  0.07835782  0.59463179  0.17127610    -0.19900
C263        C  0.02818372  0.42685202  0.19501952    -0.21300
C264        C  0.32970587  0.41748795  0.17297989    -0.09400
C265        C  0.29198344  0.39288820  0.18111702     0.29500
C266        C  0.28959546  0.37334380  0.20922389    -0.21300
C267        C  0.32636752  0.37378151  0.22879214    -0.09400
C268        C  0.02480446  0.40774339  0.22340806     0.29500
F269        F  0.04191584  0.43211990  0.24611969    -0.19900
H270        H  0.05321615  0.45234033  0.19119955     0.17900
H271        H  0.26006277  0.35465090  0.21456087     0.17900
F272        F  0.25780508  0.38676718  0.16181422    -0.19900
C273        C  0.27387640  0.62717723  0.28433810    -0.21300
C274        C  0.29305446  0.33345918  0.27298193    -0.09400
C275        C  0.28708052  0.37243974  0.28985963     0.29500
C276        C  0.26452143  0.37119170  0.31683690    -0.21300
C277        C  0.24762062  0.33124415  0.32836572    -0.09400
C278        C  0.25162241  0.62596906  0.31142470     0.29500
F279        F  0.23489869  0.58653797  0.32117853    -0.19900
H280        H  0.27860593  0.59580770  0.27362193     0.17900
H281        H  0.26133757  0.40170629  0.32912706     0.17900
F282        F  0.97249184  0.41166998  0.28160571    -0.19900
C283        C  0.07143374  0.35926756  0.27700001    -0.21300
C284        C  0.03864832  0.32687641  0.27129774    -0.09400
C285        C  0.04022610  0.62192642  0.28973602     0.29500
C286        C  0.06170902  0.62330375  0.31728917    -0.21300
C287        C  0.08516688  0.32810772  0.32610751    -0.09400
C288        C  0.09253106  0.36157302  0.30476301     0.29500
F289        F  0.12203887  0.39512115  0.30997092    -0.19900
H290        H  0.08428545  0.38005585  0.25971117     0.17900
H291        H  0.05970054  0.59459168  0.33173965     0.17900
F292        F  0.35367056  0.58325660  0.28147772    -0.19900
C293        C  0.31156618  0.40843188  0.77528540    -0.21300
C294        C  0.00650617  0.37257081  0.77197422    -0.09400
C295        C  0.04094420  0.36877342  0.79338784     0.29500
C296        C  0.03944740  0.39135612  0.82022768    -0.21300
C297        C  0.33851303  0.41998387  0.82583801    -0.09400
C298        C  0.30966940  0.43082865  0.80246482     0.29500
F299        F  0.28072729  0.46404052  0.80554336    -0.19900
H300        H  0.29190459  0.42056604  0.75726154     0.17900
H301        H  0.06430502  0.38521295  0.83705444     0.17900
F302        F  0.07353786  0.33934258  0.78982221    -0.19900
C303        C  0.02241177  0.59095169  0.77484635    -0.21300
C304        C  0.32714622  0.62669386  0.77186628    -0.09400
C305        C  0.29357018  0.63011338  0.79367083     0.29500
C306        C  0.29649170  0.60760610  0.82056094    -0.21300
C307        C  0.33123750  0.57926090  0.82581510    -0.09400
C308        C  0.02568014  0.56851902  0.80206682     0.29500
F309        F  0.05481557  0.53535330  0.80482605    -0.19900
H310        H  0.04127243  0.57897319  0.75655988     0.17900
H311        H  0.27232075  0.61355515  0.83768334     0.17900
F312        F  0.26054236  0.32591300  0.79044308    -0.19900
C313        C  0.07433555  0.64480322  0.72465944    -0.21300
C314        C  0.03859576  0.33985553  0.72801049    -0.09400
C315        C  0.03455157  0.37424283  0.70651810     0.29500
C316        C  0.05725744  0.37291103  0.67976249    -0.21300
C317        C  0.08602964  0.33870856  0.67419883    -0.09400
C318        C  0.09665045  0.64292496  0.69750751     0.29500
F319        F  0.12957857  0.61370831  0.69439371    -0.19900
H320        H  0.08646245  0.62505442  0.74263550     0.17900
H321        H  0.05111343  0.39783609  0.66295683     0.17900
F322        F  0.33828509  0.40673345  0.70997498    -0.19900
C323        C  0.25743780  0.35578540  0.72576516    -0.21300
C324        C  0.29304255  0.32706365  0.72861374    -0.09400
C325        C  0.29618605  0.62657530  0.70682889     0.29500
C326        C  0.27360222  0.62956666  0.67996595    -0.21300
C327        C  0.24547788  0.33129526  0.67477115    -0.09400
C328        C  0.23499178  0.35919374  0.69857332     0.29500
F329        F  0.20214264  0.38866028  0.69587418    -0.19900
H330        H  0.24569734  0.37475865  0.74410818     0.17900
H331        H  0.27935749  0.60528417  0.66280437     0.17900
F332        F  0.99187228  0.59341968  0.71000121    -0.19900
C333        C  0.33301464  0.66649395  0.75011450    -0.02500
O334        O  0.21077400  0.96480621  0.63321925    -0.73000
O335        O  0.11637933  0.96725922  0.57124346    -0.74000
O336        O  0.21210178  0.96647243  0.57021324    -0.62600
O337        O  0.12082487  0.96704786  0.63488224    -0.71000
O338        O  0.12098140  0.70713318  0.63331564    -0.70500
O339        O  0.21603640  0.70640893  0.57174770    -0.61800
O340        O  0.11987234  0.70724280  0.57002811    -0.74300
O341        O  0.21112479  0.70482286  0.63566646    -0.73100
Cu342      Cu  0.16484789  0.96390198  0.60190013     1.04600
Cu343      Cu  0.16720439  0.70902658  0.60222079     1.04300
C344        C  0.22216670  0.66733008  0.64619951     0.93200
C345        C  0.10172993  0.67064177  0.56167350     0.92400
C346        C  0.23035514  0.66973643  0.56207724     0.84500
C347        C  0.10951325  0.67072842  0.64576110     0.90800
O348        O  0.11852779  0.95999693  0.36790441    -0.73000
O349        O  0.21199256  0.96265468  0.43168744    -0.74000
O350        O  0.11589967  0.96226536  0.43151831    -0.62600
O351        O  0.20944165  0.96121016  0.36816592    -0.71000
O352        O  0.21137817  0.70117664  0.36776511    -0.70500
O353        O  0.11684711  0.70222559  0.42985954    -0.61800
O354        O  0.21281202  0.70264897  0.43104060    -0.74300
O355        O  0.12077250  0.69999693  0.36612861    -0.73100
Cu356      Cu  0.16389701  0.95898857  0.40031123     1.04600
Cu357      Cu  0.16539434  0.70402718  0.39911815     1.04300
C358        C  0.10829876  0.66281967  0.35511718     0.93200
C359        C  0.22874199  0.66628497  0.44033692     0.92400
C360        C  0.10007324  0.66586638  0.43964821     0.84500
C361        C  0.22243397  0.66442070  0.35645511     0.90800
O362        O  0.03910963  0.71468533  0.03106137    -0.73000
O363        O  0.03966626  0.95210355  0.96834627    -0.74000
O364        O  0.04023598  0.71490085  0.96847768    -0.63400
O365        O  0.03930629  0.95191053  0.03096989    -0.71000
O366        O  0.29951314  0.95047897  0.03046778    -0.70500
O367        O  0.30044260  0.71298776  0.96769532    -0.61800
O368        O  0.29987901  0.95037556  0.96799724    -0.74300
O369        O  0.29932684  0.71309121  0.03016311    -0.73100
Cu370      Cu  0.04209999  0.66678352  0.99973751     1.04600
Cu371      Cu  0.29725852  0.66502261  0.99905850     1.04300
C372        C  0.33570924  0.73016017  0.03957368     0.93200
C373        C  0.33642861  0.93494869  0.95921579     0.92400
C374        C  0.33712851  0.73026455  0.95911988     0.84500
C375        C  0.33596310  0.93486042  0.03968337     0.90800
O376        O  0.03698996  0.87871373  0.13284516    -0.73000
O377        O  0.03814375  0.78456696  0.07026426    -0.74000
O378        O  0.03852196  0.88073865  0.06956944    -0.62600
O379        O  0.03573459  0.78770979  0.13397001    -0.71000
O380        O  0.29600145  0.78532191  0.13142494    -0.70500
O381        O  0.29874924  0.87996258  0.06893886    -0.61800
O382        O  0.29841977  0.78403936  0.06821916    -0.74300
O383        O  0.29726493  0.87648519  0.13230981    -0.73100
Cu384      Cu  0.03991418  0.83291408  0.10125505     1.04600
Cu385      Cu  0.29511365  0.83143284  0.09974510     1.04300
C386        C  0.33367093  0.88959084  0.14414300     0.93200
C387        C  0.33518780  0.76806064  0.06026204     0.92400
C388        C  0.33556985  0.89672839  0.06032050     0.84500
C389        C  0.33179688  0.77466223  0.14431429     0.90800
C390        C  0.33117420  0.66614105  0.25015001    -0.02500
O391        O  0.30052992  0.78285338  0.92891967    -0.73000
O392        O  0.29810223  0.87786252  0.86728843    -0.74000
O393        O  0.30019113  0.78766735  0.86526612    -0.62600
O394        O  0.29977430  0.87875619  0.93034507    -0.71000
O395        O  0.03948116  0.88264814  0.92883516    -0.70500
O396        O  0.04005559  0.78788544  0.86698373    -0.61800
O397        O  0.03790352  0.87820349  0.86498547    -0.74300
O398        O  0.04028356  0.78653311  0.93014969    -0.73100
Cu399      Cu  0.29712717  0.83160279  0.89844300     1.04600
Cu400      Cu  0.04201994  0.83400355  0.89821072     1.04300
C401        C  0.33719297  0.76834493  0.93847082     0.93200
C402        C  0.33390811  0.88931482  0.85439301     0.92400
C403        C  0.33713101  0.77653613  0.85439232     0.84500
C404        C  0.33632505  0.89698120  0.93855208     0.90800
O405        O  0.28283252  0.96390239  0.47038489    -0.73000
O406        O  0.04622048  0.96664706  0.53280030    -0.74000
O407        O  0.28371541  0.96604419  0.53292173    -0.62600
O408        O  0.04543113  0.96371966  0.47020395    -0.71000
O409        O  0.04695702  0.70370554  0.46875980    -0.70500
O410        O  0.28536441  0.70605701  0.53202504    -0.61800
O411        O  0.04808370  0.70665319  0.53145023    -0.74300
O412        O  0.28421778  0.70390384  0.46932679    -0.73100
Cu413      Cu  0.33117916  0.96257914  0.50163944     1.04600
Cu414      Cu  0.33288140  0.70762647  0.50033440     1.04300
C415        C  0.26702035  0.66694392  0.46095012     0.93200
C416        C  0.06353111  0.67028754  0.54104873     0.92400
C417        C  0.26828638  0.66955521  0.54145690     0.84500
C418        C  0.06231105  0.66667912  0.46042993     0.90800
C419        C  0.29382148  0.91845003  0.18800444    -0.21300
C420        C  0.33332845  0.91458303  0.17236288    -0.09400
C421        C  0.03906206  0.93167072  0.18516045     0.29500
C422        C  0.03789296  0.95447589  0.21204686    -0.21300
C423        C  0.33136267  0.96069819  0.22752163    -0.09400
C424        C  0.29241527  0.94101763  0.21501219     0.29500
F425        F  0.25182887  0.94697140  0.22658624    -0.19900
H426        H  0.26328713  0.90481415  0.17894809     0.17900
H427        H  0.06831495  0.97006903  0.21975095     0.17900
F428        F  0.07841690  0.92798034  0.17126211    -0.19900
C429        C  0.02822489  0.76017564  0.19501312    -0.21300
C430        C  0.32973064  0.75083006  0.17298069    -0.09400
C431        C  0.29199264  0.72626272  0.18112886     0.29500
C432        C  0.28960196  0.70672835  0.20923863    -0.21300
C433        C  0.32638357  0.70713971  0.22879760    -0.09400
C434        C  0.02484247  0.74107730  0.22340464     0.29500
F435        F  0.04197091  0.76545329  0.24611100    -0.19900
H436        H  0.05327350  0.78564534  0.19118607     0.17900
H437        H  0.26005689  0.68806240  0.21458516     0.17900
F438        F  0.25780000  0.72016450  0.16183473    -0.19900
C439        C  0.27398502  0.96049804  0.28436278    -0.21300
C440        C  0.29305817  0.66681391  0.27297969    -0.09400
C441        C  0.28711201  0.70578468  0.28987234     0.29500
C442        C  0.26455083  0.70452896  0.31684867    -0.21300
C443        C  0.24761872  0.66458265  0.32835973    -0.09400
C444        C  0.25173452  0.95929583  0.31145077     0.29500
F445        F  0.23503287  0.91986239  0.32121676    -0.19900
H446        H  0.27872425  0.92912522  0.27365330     0.17900
H447        H  0.26139184  0.73503435  0.32915285     0.17900
F448        F  0.97255904  0.74500676  0.28163542    -0.19900
C449        C  0.07144860  0.69258713  0.27699687    -0.21300
C450        C  0.03864797  0.66021037  0.27129774    -0.09400
C451        C  0.04033102  0.95525586  0.28973405     0.29500
C452        C  0.06181124  0.95663666  0.31728803    -0.21300
C453        C  0.08516736  0.66143274  0.32610769    -0.09400
C454        C  0.09254648  0.69488977  0.30475966     0.29500
F455        F  0.12206928  0.72842585  0.30996434    -0.19900
H456        H  0.08431038  0.71336526  0.25970553     0.17900
H457        H  0.05981361  0.92792062  0.33173541     0.17900
F458        F  0.35379175  0.91657969  0.28147198    -0.19900
C459        C  0.31159004  0.74174677  0.77528224    -0.21300
C460        C  0.00652195  0.70587801  0.77197553    -0.09400
C461        C  0.04095947  0.70207915  0.79338969     0.29500
C462        C  0.03947260  0.72467585  0.82022486    -0.21300
C463        C  0.33854770  0.75331704  0.82583066    -0.09400
C464        C  0.30970311  0.76415703  0.80245704     0.29500
F465        F  0.28076891  0.79737689  0.80553057    -0.19900
H466        H  0.29192825  0.75387813  0.75725774     0.17900
H467        H  0.06432988  0.71853314  0.83705193     0.17900
F468        F  0.07354535  0.67263841  0.78982836    -0.19900
C469        C  0.02248330  0.92434297  0.77485138    -0.21300
C470        C  0.32721898  0.96008733  0.77187606    -0.09400
C471        C  0.29365298  0.96351117  0.79368738     0.29500
C472        C  0.29657663  0.94099557  0.82057434    -0.21300
C473        C  0.33131478  0.91263764  0.82582025    -0.09400
C474        C  0.02575368  0.90190198  0.80206874     0.29500
F475        F  0.05488515  0.86873160  0.80482087    -0.19900
H476        H  0.04133982  0.91236619  0.75656212     0.17900
H477        H  0.27241042  0.94694390  0.83769984     0.17900
F478        F  0.26054784  0.65922719  0.79043769    -0.19900
C479        C  0.07439528  0.97819176  0.72466160    -0.21300
C480        C  0.03860663  0.67315764  0.72801150    -0.09400
C481        C  0.03456435  0.70754511  0.70651914     0.29500
C482        C  0.05726821  0.70621092  0.67976307    -0.21300
C483        C  0.08603577  0.67200494  0.67419842    -0.09400
C484        C  0.09671480  0.97630724  0.69751192     0.29500
F485        F  0.12965499  0.94710188  0.69440791    -0.19900
H486        H  0.08652731  0.95845678  0.74264338     0.17900
H487        H  0.05112648  0.73113726  0.66295794     0.17900
F488        F  0.33830143  0.74003885  0.70997654    -0.19900
C489        C  0.25745236  0.68909474  0.72576422    -0.21300
C490        C  0.29305403  0.66037015  0.72861552    -0.09400
C491        C  0.29623031  0.95994194  0.70684584     0.29500
C492        C  0.27365019  0.96293048  0.67998186    -0.21300
C493        C  0.24548267  0.66458705  0.67477501    -0.09400
C494        C  0.23500335  0.69249553  0.69857327     0.29500
F495        F  0.20215862  0.72196629  0.69587093    -0.19900
H496        H  0.24571665  0.70807696  0.74410440     0.17900
H497        H  0.27940341  0.93864212  0.66282363     0.17900
F498        F  0.99191275  0.92678403  0.71002267    -0.19900
C499        C  0.66640699  0.99988000  0.75011578    -0.02500
O500        O  0.54403679  0.29815392  0.63320586    -0.73000
O501        O  0.44962804  0.30061696  0.57123868    -0.74000
O502        O  0.54534974  0.29983238  0.57020090    -0.62600
O503        O  0.45408712  0.30039355  0.63487840    -0.71000
O504        O  0.45437929  0.04048917  0.63331144    -0.70500
O505        O  0.54944384  0.03974604  0.57175069    -0.61800
O506        O  0.45328113  0.04057684  0.57002567    -0.74300
O507        O  0.54452200  0.03818331  0.63566927    -0.73100
Cu508      Cu  0.49810288  0.29725507  0.60189134     1.04600
Cu509      Cu  0.50060742  0.04237341  0.60222005     1.04300
C510        C  0.55556257  0.00069337  0.64620735     0.93200
C511        C  0.43513935  0.00397344  0.56167558     0.92400
C512        C  0.56376427  0.00307131  0.56208509     0.84500
C513        C  0.44291024  0.00408760  0.64576068     0.90800
O514        O  0.45177451  0.29333324  0.36790153    -0.73000
O515        O  0.54524346  0.29599933  0.43168216    -0.74000
O516        O  0.44915013  0.29561111  0.43151508    -0.62600
O517        O  0.54268763  0.29454154  0.36816062    -0.71000
O518        O  0.54479350  0.03451823  0.36777469    -0.70500
O519        O  0.45025385  0.03556344  0.42986629    -0.61800
O520        O  0.54621928  0.03598817  0.43105068    -0.74300
O521        O  0.45418611  0.03333909  0.36613461    -0.73100
Cu522      Cu  0.49714546  0.29232793  0.40030735     1.04600
Cu523      Cu  0.49880485  0.03736780  0.39912636     1.04300
C524        C  0.44171519  0.99616172  0.35512199     0.93200
C525        C  0.56214708  0.99962360  0.44034775     0.92400
C526        C  0.43347886  0.99920353  0.43965345     0.84500
C527        C  0.55585314  0.99776116  0.35646778     0.90800
O528        O  0.37248432  0.04802443  0.03106098    -0.73000
O529        O  0.37295129  0.28543878  0.96835303    -0.74000
O530        O  0.37361029  0.04824303  0.96847556    -0.63400
O531        O  0.37259355  0.28524377  0.03097405    -0.71000
O532        O  0.63280014  0.28380355  0.03047399    -0.70500
O533        O  0.63381685  0.04631581  0.96769474    -0.61800
O534        O  0.63316373  0.28370349  0.96800341    -0.74300
O535        O  0.63270147  0.04641819  0.03016103    -0.73100
Cu536      Cu  0.37548079  0.00012281  0.99973578     1.04600
Cu537      Cu  0.63063927  0.99835181  0.99905678     1.04300
C538        C  0.66908048  0.06349216  0.03957312     0.93200
C539        C  0.66971540  0.26828140  0.95922186     0.92400
C540        C  0.67049882  0.06360050  0.95911913     0.84500
C541        C  0.66925297  0.26818855  0.03968743     0.90800
O542        O  0.37029349  0.21205927  0.13284451    -0.73000
O543        O  0.37149711  0.11791003  0.07026588    -0.74000
O544        O  0.37182850  0.21407924  0.06957074    -0.62600
O545        O  0.36908569  0.12105582  0.13397202    -0.71000
O546        O  0.62935295  0.11863270  0.13142789    -0.70500
O547        O  0.63205529  0.21327434  0.06893950    -0.61800
O548        O  0.63177265  0.11735291  0.06822070    -0.74300
O549        O  0.63056859  0.20979607  0.13230859    -0.73100
Cu550      Cu  0.37324278  0.16625916  0.10125624     1.04600
Cu551      Cu  0.62844207  0.16474290  0.09974605     1.04300
C552        C  0.66696836  0.22291985  0.14414130     0.93200
C553        C  0.66854743  0.10139006  0.06026302     0.92400
C554        C  0.66887010  0.23005498  0.06032223     0.84500
C555        C  0.66515442  0.10799052  0.14431712     0.90800
C556        C  0.66459003  0.99946462  0.25015661    -0.02500
O557        O  0.63387946  0.11617591  0.92892198    -0.73000
O558        O  0.63139208  0.21118617  0.86729442    -0.74000
O559        O  0.63353205  0.12099691  0.86526840    -0.62600
O560        O  0.63307530  0.21207708  0.93035229    -0.71000
O561        O  0.37278118  0.21600142  0.92883666    -0.70500
O562        O  0.37339761  0.12124890  0.86698752    -0.61800
O563        O  0.37119358  0.21155928  0.86498590    -0.74300
O564        O  0.37363229  0.11988913  0.93015134    -0.73100
Cu565      Cu  0.63044724  0.16492543  0.89844807     1.04600
Cu566      Cu  0.37533989  0.16736259  0.89821270     1.04300
C567        C  0.67054966  0.10168311  0.93847186     0.93200
C568        C  0.66719063  0.22264914  0.85439399     0.92400
C569        C  0.67047878  0.10988827  0.85439382     0.84500
C570        C  0.66962022  0.23031688  0.93855698     0.90800
O571        O  0.61608533  0.29725383  0.47037803    -0.73000
O572        O  0.37946826  0.30000617  0.53279685    -0.74000
O573        O  0.61696379  0.29940497  0.53291375    -0.62600
O574        O  0.37868302  0.29707109  0.47020049    -0.71000
O575        O  0.38036322  0.03704027  0.46876651    -0.70500
O576        O  0.61877393  0.03938827  0.53203258    -0.61800
O577        O  0.38149113  0.03998184  0.53145544    -0.74300
O578        O  0.61762539  0.03724000  0.46933555    -0.73100
Cu579      Cu  0.66442944  0.29593512  0.50163416     1.04600
Cu580      Cu  0.66628919  0.04095883  0.50034164     1.04300
C581        C  0.60042556  0.00028085  0.46095997     0.93200
C582        C  0.39694041  0.00361623  0.54105211     0.92400
C583        C  0.60169623  0.00288702  0.54146538     0.84500
C584        C  0.39571607  0.00001443  0.46043485     0.90800
C585        C  0.62710246  0.25176344  0.18800037    -0.21300
C586        C  0.66661282  0.24791267  0.17236007    -0.09400
C587        C  0.37233924  0.26501529  0.18515853     0.29500
C588        C  0.37115938  0.28781750  0.21204512    -0.21300
C589        C  0.66462500  0.29402440  0.22751833    -0.09400
C590        C  0.62568561  0.27432920  0.21500842     0.29500
F591        F  0.58509593  0.28027029  0.22658075    -0.19900
H592        H  0.59657376  0.23811635  0.17894279     0.17900
H593        H  0.40157528  0.30342243  0.21975013     0.17900
F594        F  0.41169676  0.26134213  0.17126100    -0.19900
C595        C  0.36160050  0.09350822  0.19501228    -0.21300
C596        C  0.66310259  0.08415582  0.17298353    -0.09400
C597        C  0.62537607  0.05957299  0.18113493     0.29500
C598        C  0.62300080  0.04003285  0.20924360    -0.21300
C599        C  0.65978630  0.04045754  0.22879986    -0.09400
C600        C  0.35823342  0.07440539  0.22340328     0.29500
F601        F  0.37536240  0.09878494  0.24610747    -0.19900
H602        H  0.38664033  0.11898619  0.19118322     0.17900
H603        H  0.59346407  0.02135374  0.21459181     0.17900
F604        F  0.59118003  0.05346525  0.16184479    -0.19900
C605        C  0.60723785  0.29381896  0.28435873    -0.21300
C606        C  0.62647999  0.00013607  0.27299172    -0.09400
C607        C  0.62052099  0.03911325  0.28987574     0.29500
C608        C  0.59796035  0.03786392  0.31685274    -0.21300
C609        C  0.58104406  0.99791789  0.32837446    -0.09400
C610        C  0.58498993  0.29261792  0.31144800     0.29500
F611        F  0.56830434  0.25318199  0.32122142    -0.19900
H612        H  0.61198495  0.26244494  0.27365299     0.17900
H613        H  0.59478734  0.06837524  0.32914838     0.17900
F614        F  0.30594976  0.07833859  0.28162788    -0.19900
C615        C  0.40485760  0.02593210  0.27700284    -0.21300
C616        C  0.37207096  0.99354262  0.27129936    -0.09400
C617        C  0.37358005  0.28858859  0.28973107     0.29500
C618        C  0.39506082  0.28996989  0.31728451    -0.21300
C619        C  0.41858615  0.99477342  0.32611140    -0.09400
C620        C  0.42595239  0.02823808  0.30476685     0.29500
F621        F  0.45545992  0.06178611  0.30997580    -0.19900
H622        H  0.41771327  0.04671749  0.25971397     0.17900
H623        H  0.39306677  0.26125290  0.33173112     0.17900
F624        F  0.68704982  0.24990904  0.28146660    -0.19900
C625        C  0.64497762  0.07513666  0.77527278    -0.21300
C626        C  0.33991700  0.03927414  0.77196663    -0.09400
C627        C  0.37435596  0.03548366  0.79337989     0.29500
C628        C  0.37285217  0.05806518  0.82021954    -0.21300
C629        C  0.67191189  0.08668692  0.82582764    -0.09400
C630        C  0.64307430  0.09753354  0.80245159     0.29500
F631        F  0.61413136  0.13074526  0.80552754    -0.19900
H632        H  0.62532050  0.08726950  0.75724593     0.17900
H633        H  0.39770712  0.05192346  0.83704851     0.17900
F634        F  0.40695151  0.00605430  0.78981693    -0.19900
C635        C  0.35574120  0.25764523  0.77484234    -0.21300
C636        C  0.66047249  0.29338522  0.77186459    -0.09400
C637        C  0.62690142  0.29680236  0.79367312     0.29500
C638        C  0.62983233  0.27429716  0.82056407    -0.21300
C639        C  0.66458154  0.24595440  0.82581498    -0.09400
C640        C  0.35901808  0.23521352  0.80206303     0.29500
F641        F  0.38815507  0.20204870  0.80481890    -0.19900
H642        H  0.37459817  0.24566798  0.75655334     0.17900
H643        H  0.60566534  0.28024491  0.83768919     0.17900
F644        F  0.59396687  0.99263003  0.79046110    -0.19900
C645        C  0.40766184  0.31150545  0.72465958    -0.21300
C646        C  0.37199069  0.00653681  0.72800539    -0.09400
C647        C  0.36793794  0.04091016  0.70650355     0.29500
C648        C  0.39064550  0.03956911  0.67974909    -0.21300
C649        C  0.41942678  0.00537114  0.67419524    -0.09400
C650        C  0.42998031  0.30963094  0.69750884     0.29500
F651        F  0.46291378  0.28041988  0.69439689    -0.19900
H652        H  0.41978845  0.29175633  0.74263586     0.17900
H653        H  0.38449786  0.06448430  0.66293733     0.17900
F654        F  0.67166659  0.07339830  0.70995247    -0.19900
C655        C  0.59083830  0.02247225  0.72577204    -0.21300
C656        C  0.62643764  0.99374520  0.72862630    -0.09400
C657        C  0.62951389  0.29327702  0.70682217     0.29500
C658        C  0.60693503  0.29627700  0.67995798    -0.21300
C659        C  0.57887255  0.99795589  0.67478479    -0.09400
C660        C  0.56839386  0.02587186  0.69857928     0.29500
F661        F  0.53555596  0.05534937  0.69587128    -0.19900
H662        H  0.57910377  0.04145928  0.74411053     0.17900
H663        H  0.61269574  0.27200159  0.66279281     0.17900
F664        F  0.32520374  0.26012388  0.70999050    -0.19900
C665        C  0.66633629  0.33318733  0.75011289    -0.02500
O666        O  0.54404060  0.63144639  0.63320849    -0.73000
O667        O  0.44963693  0.63392514  0.57123706    -0.74000
O668        O  0.54535933  0.63313575  0.57020195    -0.62600
O669        O  0.45409056  0.63369148  0.63487630    -0.71000
O670        O  0.45430288  0.37383472  0.63331201    -0.70500
O671        O  0.54936100  0.37310562  0.57174492    -0.61800
O672        O  0.45319693  0.37393446  0.57002389    -0.74300
O673        O  0.54444719  0.37153026  0.63566406    -0.73100
Cu674      Cu  0.49810935  0.63055543  0.60189108     1.04600
Cu675      Cu  0.50052736  0.37572610  0.60221723     1.04300
C676        C  0.55549354  0.33403855  0.64619654     0.93200
C677        C  0.43505468  0.33733198  0.56167207     0.92400
C678        C  0.56367963  0.33643221  0.56207570     0.84500
C679        C  0.44283963  0.33743090  0.64576083     0.90800
O680        O  0.45177796  0.62665469  0.36789933    -0.73000
O681        O  0.54525509  0.62931563  0.43167606    -0.74000
O682        O  0.44916041  0.62892758  0.43151361    -0.62600
O683        O  0.54269152  0.62786834  0.36815269    -0.71000
O684        O  0.54470752  0.36784954  0.36776528    -0.70500
O685        O  0.45017139  0.36890904  0.42985808    -0.61800
O686        O  0.54613623  0.36933274  0.43104086    -0.74300
O687        O  0.45410147  0.36667529  0.36612804    -0.73100
Cu688      Cu  0.49715314  0.62564789  0.40030280     1.04600
Cu689      Cu  0.49872102  0.37070709  0.39911763     1.04300
C690        C  0.44162946  0.32949717  0.35511754     0.93200
C691        C  0.56206474  0.33296977  0.44033988     0.92400
C692        C  0.43339642  0.33255066  0.43964769     0.84500
C693        C  0.55576545  0.33109072  0.35645996     0.90800
O694        O  0.37243365  0.38135415  0.03106634    -0.73000
O695        O  0.37294679  0.61876519  0.96834906    -0.74000
O696        O  0.37355816  0.38157215  0.96848375    -0.63400
O697        O  0.37258855  0.61857375  0.03097106    -0.71000
O698        O  0.63279537  0.61714696  0.03047010    -0.70500
O699        O  0.63376454  0.37964439  0.96770284    -0.61800
O700        O  0.63315939  0.61704448  0.96799862    -0.74300
O701        O  0.63265071  0.37974587  0.03016878    -0.73100
Cu702      Cu  0.37543080  0.33345461  0.99974205     1.04600
Cu703      Cu  0.63058893  0.33167884  0.99906405     1.04300
C704        C  0.66903027  0.39682197  0.03957855     0.93200
C705        C  0.66970797  0.60161372  0.95921812     0.92400
C706        C  0.67044686  0.39692891  0.95912759     0.84500
C707        C  0.66924499  0.60152529  0.03968455     0.90800
O708        O  0.37027245  0.54538885  0.13284455    -0.73000
O709        O  0.37145298  0.45123661  0.07026883    -0.74000
O710        O  0.37180856  0.54740776  0.06957026    -0.62600
O711        O  0.36903795  0.45438447  0.13397412    -0.71000
O712        O  0.62930511  0.45197764  0.13142489    -0.70500
O713        O  0.63203572  0.54661908  0.06893717    -0.61800
O714        O  0.63172890  0.45069573  0.06821968    -0.74300
O715        O  0.63054759  0.54314261  0.13230646    -0.73100
Cu716      Cu  0.37320976  0.49958673  0.10125744     1.04600
Cu717      Cu  0.62840919  0.49808856  0.09974399     1.04300
C718        C  0.66694960  0.55625970  0.14413958     0.93200
C719        C  0.66850090  0.43472318  0.06026538     0.92400
C720        C  0.66885423  0.56339171  0.06032045     0.84500
C721        C  0.66510211  0.44132604  0.14431569     0.90800
C722        C  0.66450418  0.33279158  0.25015144    -0.02500
O723        O  0.63383350  0.44950958  0.92893163    -0.73000
O724        O  0.63137115  0.54450568  0.86729500    -0.74000
O725        O  0.63348284  0.45431438  0.86527847    -0.62600
O726        O  0.63305551  0.54541232  0.93035249    -0.71000
O727        O  0.37276174  0.54931778  0.92883629    -0.70500
O728        O  0.37334809  0.45454906  0.86699281    -0.61800
O729        O  0.37117258  0.54486125  0.86498705    -0.74300
O730        O  0.37358707  0.45320527  0.93015697    -0.73100
Cu731      Cu  0.63041334  0.49825294  0.89845323     1.04600
Cu732      Cu  0.37530619  0.50067043  0.89821556     1.04300
C733        C  0.67050132  0.43500951  0.93848011     0.93200
C734        C  0.66717271  0.55595803  0.85439438     0.92400
C735        C  0.67042468  0.44319326  0.85440259     0.84500
C736        C  0.66960468  0.56364498  0.93855556     0.90800
O737        O  0.61609529  0.63056637  0.47037571    -0.73000
O738        O  0.37947697  0.63331867  0.53279680    -0.74000
O739        O  0.61697241  0.63271289  0.53291265    -0.62600
O740        O  0.37869349  0.63038507  0.47020041    -0.71000
O741        O  0.38028020  0.37039153  0.46875759    -0.70500
O742        O  0.61869078  0.37274904  0.53202354    -0.61800
O743        O  0.38140944  0.37334064  0.53144744    -0.74300
O744        O  0.61754188  0.37059135  0.46932638    -0.73100
Cu745      Cu  0.66443893  0.62924700  0.50163326     1.04600
Cu746      Cu  0.66620645  0.37431462  0.50033264     1.04300
C747        C  0.60034360  0.33363078  0.46095185     0.93200
C748        C  0.39685625  0.33697548  0.54104725     0.92400
C749        C  0.60161168  0.33624843  0.54145634     0.84500
C750        C  0.39563385  0.33336459  0.46042882     0.90800
C751        C  0.62708267  0.58514284  0.18798534    -0.21300
C752        C  0.66659790  0.58125899  0.17235604    -0.09400
C753        C  0.37232896  0.59833698  0.18516283     0.29500
C754        C  0.37115096  0.62114497  0.21204764    -0.21300
C755        C  0.66461425  0.62737874  0.22751228    -0.09400
C756        C  0.62566754  0.60771325  0.21499128     0.29500
F757        F  0.58507606  0.61368075  0.22655360    -0.19900
H758        H  0.59654904  0.57151717  0.17892094     0.17900
H759        H  0.40157351  0.63672866  0.21975917     0.17900
F760        F  0.41169112  0.59463177  0.17127613    -0.19900
C761        C  0.36151704  0.42685202  0.19501952    -0.21300
C762        C  0.66303917  0.41748793  0.17297990    -0.09400
C763        C  0.62531672  0.39288817  0.18111702     0.29500
C764        C  0.62292881  0.37334384  0.20922388    -0.21300
C765        C  0.65970079  0.37378151  0.22879214    -0.09400
C766        C  0.35813778  0.40774337  0.22340806     0.29500
F767        F  0.37524912  0.43211992  0.24611969    -0.19900
H768        H  0.38654945  0.45234033  0.19119955     0.17900
H769        H  0.59339596  0.35465085  0.21456088     0.17900
F770        F  0.59113839  0.38676719  0.16181422    -0.19900
C771        C  0.60720978  0.62717723  0.28433811    -0.21300
C772        C  0.62638778  0.33345918  0.27298193    -0.09400
C773        C  0.62041379  0.37243976  0.28985961     0.29500
C774        C  0.59785473  0.37119170  0.31683689    -0.21300
C775        C  0.58095401  0.33124414  0.32836574    -0.09400
C776        C  0.58495587  0.62596904  0.31142473     0.29500
F777        F  0.56823220  0.58653793  0.32117857    -0.19900
H778        H  0.61193929  0.59580771  0.27362193     0.17900
H779        H  0.59467083  0.40170631  0.32912703     0.17900
F780        F  0.30582532  0.41166995  0.28160575    -0.19900
C781        C  0.40476706  0.35926762  0.27700003    -0.21300
C782        C  0.37198169  0.32687643  0.27129775    -0.09400
C783        C  0.37355945  0.62192644  0.28973599     0.29500
C784        C  0.39504234  0.62330374  0.31728919    -0.21300
C785        C  0.41850029  0.32810773  0.32610750    -0.09400
C786        C  0.42586443  0.36157306  0.30476302     0.29500
F787        F  0.45537231  0.39512113  0.30997091    -0.19900
H788        H  0.41761876  0.38005592  0.25971121     0.17900
H789        H  0.39303387  0.59459175  0.33173961     0.17900
F790        F  0.68700385  0.58325660  0.28147773    -0.19900
C791        C  0.64489943  0.40843186  0.77528542    -0.21300
C792        C  0.33983962  0.37257078  0.77197424    -0.09400
C793        C  0.37427761  0.36877334  0.79338788     0.29500
C794        C  0.37278070  0.39135605  0.82022766    -0.21300
C795        C  0.67184624  0.41998384  0.82583803    -0.09400
C796        C  0.64300265  0.43082863  0.80246483     0.29500
F797        F  0.61406066  0.46404059  0.80554337    -0.19900
H798        H  0.62523785  0.42056601  0.75726158     0.17900
H799        H  0.39763842  0.38521279  0.83705453     0.17900
F800        F  0.40687114  0.33934239  0.78982226    -0.19900
C801        C  0.35574506  0.59095166  0.77484635    -0.21300
C802        C  0.66047964  0.62669386  0.77186624    -0.09400
C803        C  0.62690359  0.63011341  0.79367080     0.29500
C804        C  0.62982505  0.60760614  0.82056094    -0.21300
C805        C  0.66457083  0.57926088  0.82581507    -0.09400
C806        C  0.35901342  0.56851901  0.80206683     0.29500
F807        F  0.38814885  0.53535328  0.80482605    -0.19900
H808        H  0.37460570  0.57897315  0.75655988     0.17900
H809        H  0.60565416  0.61355521  0.83768331     0.17900
F810        F  0.59387560  0.32591298  0.79044308    -0.19900
C811        C  0.40766889  0.64480321  0.72465944    -0.21300
C812        C  0.37192918  0.33985550  0.72801049    -0.09400
C813        C  0.36788502  0.37424283  0.70651811     0.29500
C814        C  0.39059090  0.37291106  0.67976250    -0.21300
C815        C  0.41936309  0.33870856  0.67419885    -0.09400
C816        C  0.42998383  0.64292497  0.69750753     0.29500
F817        F  0.46291199  0.61370836  0.69439374    -0.19900
H818        H  0.41979578  0.62505434  0.74263552     0.17900
H819        H  0.38444692  0.39783612  0.66295686     0.17900
F820        F  0.67161835  0.40673342  0.70997497    -0.19900
C821        C  0.59077109  0.35578538  0.72576518    -0.21300
C822        C  0.62637585  0.32706365  0.72861376    -0.09400
C823        C  0.62951935  0.62657530  0.70682888     0.29500
C824        C  0.60693547  0.62956665  0.67996596    -0.21300
C825        C  0.57881124  0.33129524  0.67477115    -0.09400
C826        C  0.56832510  0.35919370  0.69857332     0.29500
F827        F  0.53547592  0.38866020  0.69587416    -0.19900
H828        H  0.57903061  0.37475863  0.74410819     0.17900
H829        H  0.61269070  0.60528413  0.66280440     0.17900
F830        F  0.32520569  0.59341972  0.71000118    -0.19900
C831        C  0.66634800  0.66649396  0.75011448    -0.02500
O832        O  0.54410737  0.96480621  0.63321923    -0.73000
O833        O  0.44971265  0.96725922  0.57124346    -0.74000
O834        O  0.54543512  0.96647243  0.57021322    -0.62600
O835        O  0.45415826  0.96704784  0.63488224    -0.71000
O836        O  0.45431468  0.70713317  0.63331561    -0.70500
O837        O  0.54936974  0.70640890  0.57174770    -0.61800
O838        O  0.45320568  0.70724279  0.57002809    -0.74300
O839        O  0.54445805  0.70482286  0.63566647    -0.73100
Cu840      Cu  0.49818125  0.96390198  0.60190012     1.04600
Cu841      Cu  0.50053769  0.70902657  0.60222077     1.04300
C842        C  0.55549997  0.66733008  0.64619952     0.93200
C843        C  0.43506326  0.67064177  0.56167349     0.92400
C844        C  0.56368848  0.66973638  0.56207725     0.84500
C845        C  0.44284658  0.67072842  0.64576111     0.90800
O846        O  0.45186113  0.95999694  0.36790440    -0.73000
O847        O  0.54532583  0.96265468  0.43168748    -0.74000
O848        O  0.44923293  0.96226535  0.43151829    -0.62600
O849        O  0.54277498  0.96121016  0.36816595    -0.71000
O850        O  0.54471152  0.70117663  0.36776510    -0.70500
O851        O  0.45018046  0.70222559  0.42985955    -0.61800
O852        O  0.54614535  0.70264896  0.43104060    -0.74300
O853        O  0.45410583  0.69999694  0.36612862    -0.73100
Cu854      Cu  0.49723030  0.95898857  0.40031124     1.04600
Cu855      Cu  0.49872767  0.70402718  0.39911816     1.04300
C856        C  0.44163209  0.66281968  0.35511718     0.93200
C857        C  0.56207532  0.66628496  0.44033692     0.92400
C858        C  0.43340659  0.66586638  0.43964822     0.84500
C859        C  0.55576734  0.66442069  0.35645511     0.90800
O860        O  0.37244296  0.71468533  0.03106136    -0.73000
O861        O  0.37299965  0.95210356  0.96834628    -0.74000
O862        O  0.37356934  0.71490084  0.96847767    -0.63400
O863        O  0.37263968  0.95191052  0.03096989    -0.71000
O864        O  0.63284646  0.95047896  0.03046779    -0.70500
O865        O  0.63377590  0.71298777  0.96769533    -0.61800
O866        O  0.63321230  0.95037556  0.96799725    -0.74300
O867        O  0.63266018  0.71309121  0.03016313    -0.73100
Cu868      Cu  0.37543334  0.66678351  0.99973750     1.04600
Cu869      Cu  0.63059182  0.66502261  0.99905851     1.04300
C870        C  0.66904258  0.73016016  0.03957370     0.93200
C871        C  0.66976190  0.93494869  0.95921579     0.92400
C872        C  0.67046183  0.73026456  0.95911989     0.84500
C873        C  0.66929642  0.93486042  0.03968337     0.90800
O874        O  0.37032332  0.87871371  0.13284516    -0.73000
O875        O  0.37147707  0.78456695  0.07026425    -0.74000
O876        O  0.37185532  0.88073864  0.06956944    -0.62600
O877        O  0.36906793  0.78770976  0.13397002    -0.71000
O878        O  0.62933475  0.78532193  0.13142495    -0.70500
O879        O  0.63208260  0.87996257  0.06893887    -0.61800
O880        O  0.63175313  0.78403936  0.06821918    -0.74300
O881        O  0.63059828  0.87648520  0.13230980    -0.73100
Cu882      Cu  0.37324752  0.83291406  0.10125505     1.04600
Cu883      Cu  0.62844700  0.83143284  0.09974511     1.04300
C884        C  0.66700429  0.88959085  0.14414300     0.93200
C885        C  0.66852116  0.76806063  0.06026205     0.92400
C886        C  0.66890321  0.89672839  0.06032050     0.84500
C887        C  0.66513019  0.77466225  0.14431429     0.90800
C888        C  0.66450756  0.66614104  0.25015001    -0.02500
O889        O  0.63386326  0.78285339  0.92891967    -0.73000
O890        O  0.63143548  0.87786251  0.86728843    -0.74000
O891        O  0.63352442  0.78766736  0.86526612    -0.62600
O892        O  0.63310756  0.87875620  0.93034507    -0.71000
O893        O  0.37281455  0.88264814  0.92883515    -0.70500
O894        O  0.37338893  0.78788545  0.86698373    -0.61800
O895        O  0.37123682  0.87820349  0.86498546    -0.74300
O896        O  0.37361691  0.78653311  0.93014968    -0.73100
Cu897      Cu  0.63046045  0.83160279  0.89844300     1.04600
Cu898      Cu  0.37535328  0.83400355  0.89821071     1.04300
C899        C  0.67052631  0.76834493  0.93847082     0.93200
C900        C  0.66724136  0.88931481  0.85439302     0.92400
C901        C  0.67046429  0.77653613  0.85439232     0.84500
C902        C  0.66965832  0.89698120  0.93855208     0.90800
O903        O  0.61616582  0.96390240  0.47038491    -0.73000
O904        O  0.37955379  0.96664705  0.53280029    -0.74000
O905        O  0.61704878  0.96604420  0.53292175    -0.62600
O906        O  0.37876441  0.96371966  0.47020394    -0.71000
O907        O  0.38029034  0.70370553  0.46875979    -0.70500
O908        O  0.61869775  0.70605696  0.53202505    -0.61800
O909        O  0.38141703  0.70665319  0.53145022    -0.74300
O910        O  0.61755109  0.70390383  0.46932681    -0.73100
Cu911      Cu  0.66451251  0.96257915  0.50163945     1.04600
Cu912      Cu  0.66621472  0.70762645  0.50033441     1.04300
C913        C  0.60035368  0.66694390  0.46095014     0.93200
C914        C  0.39686443  0.67028754  0.54104872     0.92400
C915        C  0.60161974  0.66955516  0.54145692     0.84500
C916        C  0.39564438  0.66667911  0.46042993     0.90800
C917        C  0.62715489  0.91845008  0.18800445    -0.21300
C918        C  0.66666180  0.91458304  0.17236288    -0.09400
C919        C  0.37239540  0.93167071  0.18516045     0.29500
C920        C  0.37122631  0.95447586  0.21204686    -0.21300
C921        C  0.66469606  0.96069821  0.22752162    -0.09400
C922        C  0.62574864  0.94101764  0.21501217     0.29500
F923        F  0.58516224  0.94697142  0.22658623    -0.19900
H924        H  0.59662041  0.90481415  0.17894806     0.17900
H925        H  0.40164829  0.97006900  0.21975095     0.17900
F926        F  0.41175025  0.92798036  0.17126210    -0.19900
C927        C  0.36155816  0.76017564  0.19501313    -0.21300
C928        C  0.66306397  0.75083008  0.17298069    -0.09400
C929        C  0.62532598  0.72626272  0.18112885     0.29500
C930        C  0.62293530  0.70672833  0.20923862    -0.21300
C931        C  0.65971692  0.70713972  0.22879760    -0.09400
C932        C  0.35817573  0.74107731  0.22340465     0.29500
F933        F  0.37530413  0.76545331  0.24611102    -0.19900
H934        H  0.38660677  0.78564536  0.19118608     0.17900
H935        H  0.59339026  0.68806238  0.21458514     0.17900
F936        F  0.59113337  0.72016446  0.16183470    -0.19900
C937        C  0.60731832  0.96049806  0.28436278    -0.21300
C938        C  0.62639152  0.66681392  0.27297968    -0.09400
C939        C  0.62044537  0.70578468  0.28987234     0.29500
C940        C  0.59788427  0.70452895  0.31684870    -0.21300
C941        C  0.58095216  0.66458263  0.32835976    -0.09400
C942        C  0.58506779  0.95929584  0.31145076     0.29500
F943        F  0.56836608  0.91986241  0.32121673    -0.19900
H944        H  0.61205752  0.92912525  0.27365328     0.17900
H945        H  0.59472528  0.73503433  0.32915288     0.17900
F946        F  0.30589230  0.74500675  0.28163540    -0.19900
C947        C  0.40478189  0.69258718  0.27699688    -0.21300
C948        C  0.37198128  0.66021040  0.27129772    -0.09400
C949        C  0.37366442  0.95525586  0.28973404     0.29500
C950        C  0.39514464  0.95663666  0.31728802    -0.21300
C951        C  0.41850067  0.66143279  0.32610769    -0.09400
C952        C  0.42587981  0.69488981  0.30475966     0.29500
F953        F  0.45540270  0.72842580  0.30996432    -0.19900
H954        H  0.41764365  0.71336531  0.25970555     0.17900
H955        H  0.39314704  0.92792061  0.33173538     0.17900
F956        F  0.68712503  0.91657970  0.28147199    -0.19900
C957        C  0.64492337  0.74174677  0.77528223    -0.21300
C958        C  0.33985526  0.70587800  0.77197555    -0.09400
C959        C  0.37429278  0.70207913  0.79338970     0.29500
C960        C  0.37280590  0.72467587  0.82022483    -0.21300
C961        C  0.67188097  0.75331701  0.82583067    -0.09400
C962        C  0.64303639  0.76415700  0.80245704     0.29500
F963        F  0.61410216  0.79737683  0.80553056    -0.19900
H964        H  0.62526161  0.75387814  0.75725773     0.17900
H965        H  0.39766328  0.71853313  0.83705194     0.17900
F966        F  0.40687863  0.67263836  0.78982836    -0.19900
C967        C  0.35581657  0.92434293  0.77485137    -0.21300
C968        C  0.66055231  0.96008733  0.77187607    -0.09400
C969        C  0.62698630  0.96351118  0.79368739     0.29500
C970        C  0.62990995  0.94099559  0.82057434    -0.21300
C971        C  0.66464805  0.91263763  0.82582025    -0.09400
C972        C  0.35908695  0.90190194  0.80206871     0.29500
F973        F  0.38821841  0.86873155  0.80482085    -0.19900
H974        H  0.37467316  0.91236616  0.75656207     0.17900
H975        H  0.60574371  0.94694394  0.83769986     0.17900
F976        F  0.59388127  0.65922726  0.79043768    -0.19900
C977        C  0.40772864  0.97819177  0.72466159    -0.21300
C978        C  0.37193997  0.67315760  0.72801150    -0.09400
C979        C  0.36789770  0.70754508  0.70651914     0.29500
C980        C  0.39060155  0.70621087  0.67976308    -0.21300
C981        C  0.41936913  0.67200494  0.67419843    -0.09400
C982        C  0.43004819  0.97630726  0.69751193     0.29500
F983        F  0.46298845  0.94710197  0.69440792    -0.19900
H984        H  0.41986069  0.95845675  0.74264342     0.17900
H985        H  0.38445980  0.73113725  0.66295793     0.17900
F986        F  0.67163476  0.74003885  0.70997652    -0.19900
C987        C  0.59078570  0.68909478  0.72576423    -0.21300
C988        C  0.62638738  0.66037016  0.72861550    -0.09400
C989        C  0.62956370  0.95994192  0.70684583     0.29500
C990        C  0.60698353  0.96293044  0.67998186    -0.21300
C991        C  0.57881593  0.66458704  0.67477502    -0.09400
C992        C  0.56833665  0.69249553  0.69857327     0.29500
F993        F  0.53549188  0.72196627  0.69587096    -0.19900
H994        H  0.57905002  0.70807696  0.74410438     0.17900
H995        H  0.61273671  0.93864206  0.66282365     0.17900
F996        F  0.32524603  0.92678402  0.71002269    -0.19900
C997        C  0.99974034  0.99988003  0.75011578    -0.02500
O998        O  0.87737020  0.29815393  0.63320584    -0.73000
O999        O  0.78296138  0.30061696  0.57123869    -0.74000
O1000       O  0.87868309  0.29983237  0.57020089    -0.62600
O1001       O  0.78742051  0.30039355  0.63487842    -0.71000
O1002       O  0.78771270  0.04048918  0.63331149    -0.70500
O1003       O  0.88277723  0.03974602  0.57175073    -0.61800
O1004       O  0.78661449  0.04057683  0.57002572    -0.74300
O1005       O  0.87785538  0.03818332  0.63566928    -0.73100
Cu1006     Cu  0.83143626  0.29725507  0.60189134     1.04600
Cu1007     Cu  0.83394081  0.04237340  0.60222009     1.04300
C1008       C  0.88889590  0.00069337  0.64620737     0.93200
C1009       C  0.76847270  0.00397344  0.56167560     0.92400
C1010       C  0.89709764  0.00307129  0.56208513     0.84500
C1011       C  0.77624358  0.00408760  0.64576070     0.90800
O1012       O  0.78510776  0.29333324  0.36790156    -0.73000
O1013       O  0.87857678  0.29599935  0.43168216    -0.74000
O1014       O  0.78248343  0.29561111  0.43151510    -0.62600
O1015       O  0.87602087  0.29454155  0.36816062    -0.71000
O1016       O  0.87812687  0.03451824  0.36777471    -0.70500
O1017       O  0.78358726  0.03556343  0.42986630    -0.61800
O1018       O  0.87955268  0.03598816  0.43105068    -0.74300
O1019       O  0.78751947  0.03333909  0.36613462    -0.73100
Cu1020     Cu  0.83047873  0.29232794  0.40030736     1.04600
Cu1021     Cu  0.83213824  0.03736780  0.39912636     1.04300
C1022       C  0.77504855  0.99616172  0.35512199     0.93200
C1023       C  0.89548045  0.99962360  0.44034776     0.92400
C1024       C  0.76681224  0.99920353  0.43965345     0.84500
C1025       C  0.88918651  0.99776118  0.35646779     0.90800
O1026       O  0.70581759  0.04802442  0.03106097    -0.73000
O1027       O  0.70628459  0.28543878  0.96835303    -0.74000
O1028       O  0.70694353  0.04824303  0.96847555    -0.63400
O1029       O  0.70592691  0.28524378  0.03097405    -0.71000
O1030       O  0.96613340  0.28380355  0.03047399    -0.70500
O1031       O  0.96715029  0.04631582  0.96769473    -0.61800
O1032       O  0.96649703  0.28370348  0.96800340    -0.74300
O1033       O  0.96603484  0.04641819  0.03016103    -0.73100
Cu1034     Cu  0.70881407  0.00012282  0.99973577     1.04600
Cu1035     Cu  0.96397262  0.99835182  0.99905678     1.04300
C1036       C  0.00241384  0.06349216  0.03957312     0.93200
C1037       C  0.00304871  0.26828140  0.95922186     0.92400
C1038       C  0.00383227  0.06360050  0.95911913     0.84500
C1039       C  0.00258623  0.26818855  0.03968743     0.90800
O1040       O  0.70362682  0.21205927  0.13284452    -0.73000
O1041       O  0.70483045  0.11791001  0.07026587    -0.74000
O1042       O  0.70516191  0.21407925  0.06957074    -0.62600
O1043       O  0.70241904  0.12105580  0.13397203    -0.71000
O1044       O  0.96268622  0.11863271  0.13142790    -0.70500
O1045       O  0.96538855  0.21327435  0.06893950    -0.61800
O1046       O  0.96510596  0.11735290  0.06822070    -0.74300
O1047       O  0.96390185  0.20979607  0.13230859    -0.73100
Cu1048     Cu  0.70657615  0.16625915  0.10125624     1.04600
Cu1049     Cu  0.96177533  0.16474290  0.09974605     1.04300
C1050       C  0.00030163  0.22291986  0.14414130     0.93200
C1051       C  0.00188077  0.10139007  0.06026302     0.92400
C1052       C  0.00220336  0.23005498  0.06032223     0.84500
C1053       C  0.99848769  0.10799054  0.14431712     0.90800
C1054       C  0.99792332  0.99946465  0.25015661    -0.02500
O1055       O  0.96721291  0.11617591  0.92892199    -0.73000
O1056       O  0.96472540  0.21118615  0.86729443    -0.74000
O1057       O  0.96686542  0.12099692  0.86526841    -0.62600
O1058       O  0.96640865  0.21207707  0.93035229    -0.71000
O1059       O  0.70611445  0.21600141  0.92883666    -0.70500
O1060       O  0.70673089  0.12124890  0.86698751    -0.61800
O1061       O  0.70452687  0.21155928  0.86498590    -0.74300
O1062       O  0.70696552  0.11988912  0.93015133    -0.73100
Cu1063     Cu  0.96378062  0.16492543  0.89844808     1.04600
Cu1064     Cu  0.70867316  0.16736258  0.89821270     1.04300
C1065       C  0.00388312  0.10168311  0.93847186     0.93200
C1066       C  0.00052395  0.22264913  0.85439399     0.92400
C1067       C  0.00381214  0.10988829  0.85439382     0.84500
C1068       C  0.00295355  0.23031687  0.93855698     0.90800
O1069       O  0.94941871  0.29725386  0.47037799    -0.73000
O1070       O  0.71280163  0.30000616  0.53279684    -0.74000
O1071       O  0.95029712  0.29940498  0.53291374    -0.62600
O1072       O  0.71201630  0.29707109  0.47020048    -0.71000
O1073       O  0.71369661  0.03704028  0.46876652    -0.70500
O1074       O  0.95210732  0.03938826  0.53203266    -0.61800
O1075       O  0.71482450  0.03998186  0.53145545    -0.74300
O1076       O  0.95095864  0.03723999  0.46933565    -0.73100
Cu1077     Cu  0.99776279  0.29593513  0.50163415     1.04600
Cu1078     Cu  0.99962250  0.04095882  0.50034168     1.04300
C1079       C  0.93375890  0.00028084  0.46096000     0.93200
C1080       C  0.73027377  0.00361625  0.54105212     0.92400
C1081       C  0.93502960  0.00288700  0.54146542     0.84500
C1082       C  0.72904944  0.00001443  0.46043484     0.90800
C1083       C  0.96043579  0.25176345  0.18800039    -0.21300
C1084       C  0.99994612  0.24791267  0.17236007    -0.09400
C1085       C  0.70567251  0.26501528  0.18515851     0.29500
C1086       C  0.70449272  0.28781753  0.21204513    -0.21300
C1087       C  0.99795833  0.29402439  0.22751833    -0.09400
C1088       C  0.95901894  0.27432918  0.21500843     0.29500
F1089       F  0.91842928  0.28027030  0.22658076    -0.19900
H1090       H  0.92990705  0.23811635  0.17894280     0.17900
H1091       H  0.73490850  0.30342239  0.21975011     0.17900
F1092       F  0.74503004  0.26134215  0.17126100    -0.19900
C1093       C  0.69493385  0.09350820  0.19501229    -0.21300
C1094       C  0.99643587  0.08415583  0.17298353    -0.09400
C1095       C  0.95870939  0.05957299  0.18113493     0.29500
C1096       C  0.95633411  0.04003287  0.20924361    -0.21300
C1097       C  0.99311963  0.04045757  0.22879987    -0.09400
C1098       C  0.69156676  0.07440537  0.22340329     0.29500
F1099       F  0.70869571  0.09878495  0.24610749    -0.19900
H1100       H  0.71997368  0.11898616  0.19118323     0.17900
H1101       H  0.92679744  0.02135379  0.21459180     0.17900
F1102       F  0.92451338  0.05346518  0.16184478    -0.19900
C1103       C  0.94057114  0.29381897  0.28435874    -0.21300
C1104       C  0.95981326  0.00013609  0.27299170    -0.09400
C1105       C  0.95385426  0.03911328  0.28987572     0.29500
C1106       C  0.93129364  0.03786394  0.31685273    -0.21300
C1107       C  0.91437739  0.99791791  0.32837445    -0.09400
C1108       C  0.91832320  0.29261793  0.31144801     0.29500
F1109       F  0.90163755  0.25318202  0.32122141    -0.19900
H1110       H  0.94531821  0.26244495  0.27365300     0.17900
H1111       H  0.92812065  0.06837528  0.32914837     0.17900
F1112       F  0.63928316  0.07833859  0.28162795    -0.19900
C1113       C  0.73819099  0.02593207  0.27700283    -0.21300
C1114       C  0.70540433  0.99354262  0.27129936    -0.09400
C1115       C  0.70691334  0.28858860  0.28973107     0.29500
C1116       C  0.72839412  0.28996989  0.31728450    -0.21300
C1117       C  0.75191948  0.99477342  0.32611140    -0.09400
C1118       C  0.75928575  0.02823807  0.30476685     0.29500
F1119       F  0.78879322  0.06178613  0.30997583    -0.19900
H1120       H  0.75104661  0.04671752  0.25971396     0.17900
H1121       H  0.72640004  0.26125290  0.33173113     0.17900
F1122       F  0.02038308  0.24990904  0.28146661    -0.19900
C1123       C  0.97831093  0.07513669  0.77527276    -0.21300
C1124       C  0.67325032  0.03927415  0.77196664    -0.09400
C1125       C  0.70768929  0.03548369  0.79337989     0.29500
C1126       C  0.70618547  0.05806518  0.82021955    -0.21300
C1127       C  0.00524522  0.08668693  0.82582765    -0.09400
C1128       C  0.97640763  0.09753355  0.80245161     0.29500
F1129       F  0.94746462  0.13074522  0.80552755    -0.19900
H1130       H  0.95865388  0.08726948  0.75724597     0.17900
H1131       H  0.73104041  0.05192349  0.83704852     0.17900
F1132       F  0.74028488  0.00605438  0.78981692    -0.19900
C1133       C  0.68907449  0.25764525  0.77484235    -0.21300
C1134       C  0.99380580  0.29338523  0.77186460    -0.09400
C1135       C  0.96023474  0.29680237  0.79367314     0.29500
C1136       C  0.96316565  0.27429713  0.82056405    -0.21300
C1137       C  0.99791483  0.24595437  0.82581498    -0.09400
C1138       C  0.69235136  0.23521354  0.80206303     0.29500
F1139       F  0.72148833  0.20204871  0.80481889    -0.19900
H1140       H  0.70793145  0.24566800  0.75655336     0.17900
H1141       H  0.93899860  0.28024489  0.83768921     0.17900
F1142       F  0.92730036  0.99263019  0.79046117    -0.19900
C1143       C  0.74099513  0.31150545  0.72465958    -0.21300
C1144       C  0.70532404  0.00653682  0.72800541    -0.09400
C1145       C  0.70127130  0.04091018  0.70650358     0.29500
C1146       C  0.72397888  0.03956916  0.67974911    -0.21300
C1147       C  0.75276011  0.00537113  0.67419526    -0.09400
C1148       C  0.76331361  0.30963096  0.69750884     0.29500
F1149       F  0.79624715  0.28041996  0.69439691    -0.19900
H1150       H  0.75312176  0.29175634  0.74263586     0.17900
H1151       H  0.71783127  0.06448433  0.66293737     0.17900
F1152       F  0.00499987  0.07339828  0.70995245    -0.19900
C1153       C  0.92417162  0.02247228  0.72577205    -0.21300
C1154       C  0.95977097  0.99374521  0.72862631    -0.09400
C1155       C  0.96284720  0.29327703  0.70682218     0.29500
C1156       C  0.94026839  0.29627705  0.67995797    -0.21300
C1157       C  0.91220586  0.99795589  0.67478480    -0.09400
C1158       C  0.90172717  0.02587186  0.69857929     0.29500
F1159       F  0.86888925  0.05534936  0.69587130    -0.19900
H1160       H  0.91243712  0.04145931  0.74411051     0.17900
H1161       H  0.94602913  0.27200164  0.66279280     0.17900
F1162       F  0.65853710  0.26012391  0.70999057    -0.19900
C1163       C  0.99966959  0.33318735  0.75011289    -0.02500
O1164       O  0.87737395  0.63144639  0.63320849    -0.73000
O1165       O  0.78297030  0.63392515  0.57123705    -0.74000
O1166       O  0.87869268  0.63313579  0.57020193    -0.62600
O1167       O  0.78742388  0.63369149  0.63487628    -0.71000
O1168       O  0.78763613  0.37383472  0.63331199    -0.70500
O1169       O  0.88269437  0.37310561  0.57174494    -0.61800
O1170       O  0.78653029  0.37393446  0.57002386    -0.74300
O1171       O  0.87778045  0.37153026  0.63566408    -0.73100
Cu1172     Cu  0.83144270  0.63055545  0.60189107     1.04600
Cu1173     Cu  0.83386067  0.37572610  0.60221723     1.04300
C1174       C  0.88882687  0.33403857  0.64619654     0.93200
C1175       C  0.76838804  0.33733198  0.56167206     0.92400
C1176       C  0.89701299  0.33643221  0.56207571     0.84500
C1177       C  0.77617294  0.33743089  0.64576082     0.90800
O1178       O  0.78511131  0.62665468  0.36789934    -0.73000
O1179       O  0.87858849  0.62931564  0.43167605    -0.74000
O1180       O  0.78249378  0.62892759  0.43151363    -0.62600
O1181       O  0.87602488  0.62786835  0.36815270    -0.71000
O1182       O  0.87804076  0.36784955  0.36776527    -0.70500
O1183       O  0.78350469  0.36890904  0.42985811    -0.61800
O1184       O  0.87946954  0.36933276  0.43104085    -0.74300
O1185       O  0.78743472  0.36667528  0.36612806    -0.73100
Cu1186     Cu  0.83048651  0.62564789  0.40030281     1.04600
Cu1187     Cu  0.83205429  0.37070710  0.39911764     1.04300
C1188       C  0.77496273  0.32949716  0.35511755     0.93200
C1189       C  0.89539807  0.33296979  0.44033987     0.92400
C1190       C  0.76672972  0.33255066  0.43964772     0.84500
C1191       C  0.88909870  0.33109073  0.35645996     0.90800
O1192       O  0.70576701  0.38135416  0.03106633    -0.73000
O1193       O  0.70628006  0.61876520  0.96834907    -0.74000
O1194       O  0.70689150  0.38157215  0.96848374    -0.63400
O1195       O  0.70592188  0.61857375  0.03097105    -0.71000
O1196       O  0.96612871  0.61714699  0.03047010    -0.70500
O1197       O  0.96709781  0.37964439  0.96770284    -0.61800
O1198       O  0.96649276  0.61704447  0.96799862    -0.74300
O1199       O  0.96598399  0.37974587  0.03016878    -0.73100
Cu1200     Cu  0.70876413  0.33345462  0.99974204     1.04600
Cu1201     Cu  0.96392220  0.33167884  0.99906405     1.04300
C1202       C  0.00236355  0.39682197  0.03957855     0.93200
C1203       C  0.00304134  0.60161372  0.95921811     0.92400
C1204       C  0.00378012  0.39692891  0.95912759     0.84500
C1205       C  0.00257832  0.60152531  0.03968455     0.90800
O1206       O  0.70360579  0.54538886  0.13284455    -0.73000
O1207       O  0.70478631  0.45123661  0.07026883    -0.74000
O1208       O  0.70514195  0.54740777  0.06957026    -0.62600
O1209       O  0.70237125  0.45438447  0.13397412    -0.71000
O1210       O  0.96263845  0.45197765  0.13142490    -0.70500
O1211       O  0.96536901  0.54661915  0.06893720    -0.61800
O1212       O  0.96506219  0.45069577  0.06821966    -0.74300
O1213       O  0.96388093  0.54314261  0.13230647    -0.73100
Cu1214     Cu  0.70654310  0.49958673  0.10125744     1.04600
Cu1215     Cu  0.96174251  0.49808858  0.09974400     1.04300
C1216       C  0.00028296  0.55625969  0.14413959     0.93200
C1217       C  0.00183419  0.43472320  0.06026538     0.92400
C1218       C  0.00218753  0.56339174  0.06032046     0.84500
C1219       C  0.99843547  0.44132607  0.14431569     0.90800
C1220       C  0.99783752  0.33279157  0.25015144    -0.02500
O1221       O  0.96716679  0.44950959  0.92893162    -0.73000
O1222       O  0.96470460  0.54450569  0.86729501    -0.74000
O1223       O  0.96681624  0.45431441  0.86527847    -0.62600
O1224       O  0.96638888  0.54541233  0.93035249    -0.71000
O1225       O  0.70609505  0.54931780  0.92883629    -0.70500
O1226       O  0.70668133  0.45454905  0.86699281    -0.61800
O1227       O  0.70450582  0.54486123  0.86498706    -0.74300
O1228       O  0.70692040  0.45320528  0.93015697    -0.73100
Cu1229     Cu  0.96374672  0.49825296  0.89845323     1.04600
Cu1230     Cu  0.70863948  0.50067043  0.89821556     1.04300
C1231       C  0.00383460  0.43500951  0.93848011     0.93200
C1232       C  0.00050614  0.55595804  0.85439438     0.92400
C1233       C  0.00375808  0.44319331  0.85440258     0.84500
C1234       C  0.00293805  0.56364498  0.93855556     0.90800
O1235       O  0.94942866  0.63056639  0.47037570    -0.73000
O1236       O  0.71281034  0.63331867  0.53279680    -0.74000
O1237       O  0.95030572  0.63271293  0.53291263    -0.62600
O1238       O  0.71202685  0.63038507  0.47020042    -0.71000
O1239       O  0.71361352  0.37039153  0.46875762    -0.70500
O1240       O  0.95202414  0.37274905  0.53202357    -0.61800
O1241       O  0.71474274  0.37334064  0.53144746    -0.74300
O1242       O  0.95087517  0.37059137  0.46932641    -0.73100
Cu1243     Cu  0.99777226  0.62924701  0.50163325     1.04600
Cu1244     Cu  0.99953977  0.37431463  0.50033265     1.04300
C1245       C  0.93367694  0.33363080  0.46095184     0.93200
C1246       C  0.73018959  0.33697548  0.54104724     0.92400
C1247       C  0.93494504  0.33624844  0.54145635     0.84500
C1248       C  0.72896714  0.33336459  0.46042884     0.90800
C1249       C  0.96041596  0.58514281  0.18798531    -0.21300
C1250       C  0.99993129  0.58125898  0.17235604    -0.09400
C1251       C  0.70566233  0.59833700  0.18516282     0.29500
C1252       C  0.70448429  0.62114495  0.21204761    -0.21300
C1253       C  0.99794757  0.62737875  0.22751229    -0.09400
C1254       C  0.95900087  0.60771329  0.21499127     0.29500
F1255       F  0.91840934  0.61368081  0.22655352    -0.19900
H1256       H  0.92988247  0.57151719  0.17892094     0.17900
H1257       H  0.73490697  0.63672872  0.21975918     0.17900
F1258       F  0.74502448  0.59463177  0.17127610    -0.19900
C1259       C  0.69485032  0.42685204  0.19501952    -0.21300
C1260       C  0.99637256  0.41748796  0.17297989    -0.09400
C1261       C  0.95865013  0.39288820  0.18111701     0.29500
C1262       C  0.95626214  0.37334381  0.20922388    -0.21300
C1263       C  0.99303419  0.37378152  0.22879215    -0.09400
C1264       C  0.69147106  0.40774338  0.22340806     0.29500
F1265       F  0.70858253  0.43211988  0.24611968    -0.19900
H1266       H  0.71988275  0.45234035  0.19119955     0.17900
H1267       H  0.92672945  0.35465090  0.21456085     0.17900
F1268       F  0.92447180  0.38676716  0.16181421    -0.19900
C1269       C  0.94054303  0.62717725  0.28433808    -0.21300
C1270       C  0.95972110  0.33345918  0.27298194    -0.09400
C1271       C  0.95374716  0.37243974  0.28985964     0.29500
C1272       C  0.93118814  0.37119169  0.31683694    -0.21300
C1273       C  0.91428733  0.33124414  0.32836576    -0.09400
C1274       C  0.91828910  0.62596907  0.31142470     0.29500
F1275       F  0.90156543  0.58653797  0.32117854    -0.19900
H1276       H  0.94527252  0.59580773  0.27362189     0.17900
H1277       H  0.92800428  0.40170627  0.32912709     0.17900
F1278       F  0.63915855  0.41166998  0.28160571    -0.19900
C1279       C  0.73810044  0.35926756  0.27700001    -0.21300
C1280       C  0.70531501  0.32687644  0.27129773    -0.09400
C1281       C  0.70689274  0.62192642  0.28973601     0.29500
C1282       C  0.72837561  0.62330373  0.31728921    -0.21300
C1283       C  0.75183361  0.32810772  0.32610749    -0.09400
C1284       C  0.75919779  0.36157302  0.30476299     0.29500
F1285       F  0.78870561  0.39512114  0.30997091    -0.19900
H1286       H  0.75095220  0.38005587  0.25971113     0.17900
H1287       H  0.72636712  0.59459177  0.33173964     0.17900
F1288       F  0.02033711  0.58325662  0.28147775    -0.19900
C1289       C  0.97823277  0.40843188  0.77528546    -0.21300
C1290       C  0.67317289  0.37257077  0.77197424    -0.09400
C1291       C  0.70761087  0.36877335  0.79338787     0.29500
C1292       C  0.70611401  0.39135601  0.82022772    -0.21300
C1293       C  0.00517961  0.41998392  0.82583799    -0.09400
C1294       C  0.97633596  0.43082869  0.80246481     0.29500
F1295       F  0.94739393  0.46404060  0.80554339    -0.19900
H1296       H  0.95857105  0.42056607  0.75726152     0.17900
H1297       H  0.73097160  0.38521281  0.83705450     0.17900
F1298       F  0.74020449  0.33934247  0.78982225    -0.19900
C1299       C  0.68907840  0.59095165  0.77484637    -0.21300
C1300       C  0.99381295  0.62669389  0.77186626    -0.09400
C1301       C  0.96023690  0.63011340  0.79367081     0.29500
C1302       C  0.96315836  0.60760610  0.82056095    -0.21300
C1303       C  0.99790421  0.57926089  0.82581508    -0.09400
C1304       C  0.69234676  0.56851897  0.80206681     0.29500
F1305       F  0.72148213  0.53535319  0.80482606    -0.19900
H1306       H  0.70793913  0.57897309  0.75655983     0.17900
H1307       H  0.93898747  0.61355512  0.83768329     0.17900
F1308       F  0.92720897  0.32591304  0.79044310    -0.19900
C1309       C  0.74100224  0.64480322  0.72465943    -0.21300
C1310       C  0.70526247  0.33985551  0.72801050    -0.09400
C1311       C  0.70121829  0.37424281  0.70651811     0.29500
C1312       C  0.72392416  0.37291103  0.67976249    -0.21300
C1313       C  0.75269637  0.33870855  0.67419884    -0.09400
C1314       C  0.76331717  0.64292496  0.69750752     0.29500
F1315       F  0.79624530  0.61370832  0.69439372    -0.19900
H1316       H  0.75312914  0.62505433  0.74263554     0.17900
H1317       H  0.71778015  0.39783607  0.66295684     0.17900
F1318       F  0.00495162  0.40673343  0.70997496    -0.19900
C1319       C  0.92410439  0.35578537  0.72576517    -0.21300
C1320       C  0.95970914  0.32706366  0.72861378    -0.09400
C1321       C  0.96285270  0.62657530  0.70682890     0.29500
C1322       C  0.94026887  0.62956667  0.67996596    -0.21300
C1323       C  0.91214459  0.33129527  0.67477115    -0.09400
C1324       C  0.90165841  0.35919372  0.69857333     0.29500
F1325       F  0.86880920  0.38866018  0.69587417    -0.19900
H1326       H  0.91236386  0.37475865  0.74410823     0.17900
H1327       H  0.94602415  0.60528415  0.66280438     0.17900
F1328       F  0.65853895  0.59341970  0.71000118    -0.19900
C1329       C  0.99968132  0.66649398  0.75011449    -0.02500
O1330       O  0.87744068  0.96480621  0.63321925    -0.73000
O1331       O  0.78304599  0.96725921  0.57124347    -0.74000
O1332       O  0.87876846  0.96647241  0.57021324    -0.62600
O1333       O  0.78749155  0.96704784  0.63488224    -0.71000
O1334       O  0.78764814  0.70713318  0.63331564    -0.70500
O1335       O  0.88270313  0.70640894  0.57174771    -0.61800
O1336       O  0.78653905  0.70724280  0.57002811    -0.74300
O1337       O  0.87779151  0.70482286  0.63566645    -0.73100
Cu1338     Cu  0.83151457  0.96390197  0.60190013     1.04600
Cu1339     Cu  0.83387111  0.70902658  0.60222079     1.04300
C1340       C  0.88883338  0.66733008  0.64619951     0.93200
C1341       C  0.76839663  0.67064178  0.56167349     0.92400
C1342       C  0.89702184  0.66973643  0.56207724     0.84500
C1343       C  0.77617996  0.67072842  0.64576111     0.90800
O1344       O  0.78519451  0.95999693  0.36790439    -0.73000
O1345       O  0.87865918  0.96265468  0.43168748    -0.74000
O1346       O  0.78256629  0.96226534  0.43151827    -0.62600
O1347       O  0.87610836  0.96121017  0.36816597    -0.71000
O1348       O  0.87804486  0.70117664  0.36776512    -0.70500
O1349       O  0.78351378  0.70222560  0.42985954    -0.61800
O1350       O  0.87947869  0.70264897  0.43104062    -0.74300
O1351       O  0.78743918  0.69999693  0.36612862    -0.73100
Cu1352     Cu  0.83056368  0.95898857  0.40031124     1.04600
Cu1353     Cu  0.83206101  0.70402718  0.39911816     1.04300
C1354       C  0.77496543  0.66281967  0.35511719     0.93200
C1355       C  0.89540870  0.66628498  0.44033692     0.92400
C1356       C  0.76673993  0.66586639  0.43964822     0.84500
C1357       C  0.88910067  0.66442070  0.35645511     0.90800
O1358       O  0.70577629  0.71468532  0.03106137    -0.73000
O1359       O  0.70633294  0.95210355  0.96834627    -0.74000
O1360       O  0.70690265  0.71490084  0.96847768    -0.63400
O1361       O  0.70597299  0.95191054  0.03096988    -0.71000
O1362       O  0.96617976  0.95047897  0.03046778    -0.70500
O1363       O  0.96710924  0.71298776  0.96769533    -0.61800
O1364       O  0.96654562  0.95037556  0.96799724    -0.74300
O1365       O  0.96599351  0.71309121  0.03016312    -0.73100
Cu1366     Cu  0.70876664  0.66678351  0.99973751     1.04600
Cu1367     Cu  0.96392517  0.66502261  0.99905851     1.04300
C1368       C  0.00237591  0.73016016  0.03957370     0.93200
C1369       C  0.00309522  0.93494869  0.95921579     0.92400
C1370       C  0.00379515  0.73026456  0.95911988     0.84500
C1371       C  0.00262972  0.93486042  0.03968337     0.90800
O1372       O  0.70365667  0.87871372  0.13284516    -0.73000
O1373       O  0.70481044  0.78456695  0.07026425    -0.74000
O1374       O  0.70518868  0.88073865  0.06956944    -0.62600
O1375       O  0.70240124  0.78770978  0.13397002    -0.71000
O1376       O  0.96266811  0.78532192  0.13142495    -0.70500
O1377       O  0.96541588  0.87996257  0.06893887    -0.61800
O1378       O  0.96508644  0.78403935  0.06821917    -0.74300
O1379       O  0.96393157  0.87648520  0.13230981    -0.73100
Cu1380     Cu  0.70658087  0.83291407  0.10125504     1.04600
Cu1381     Cu  0.96178030  0.83143283  0.09974511     1.04300
C1382       C  0.00033758  0.88959085  0.14414301     0.93200
C1383       C  0.00185447  0.76806063  0.06026205     0.92400
C1384       C  0.00223649  0.89672839  0.06032050     0.84500
C1385       C  0.99846355  0.77466224  0.14431429     0.90800
C1386       C  0.99784091  0.66614105  0.25015001    -0.02500
O1387       O  0.96719656  0.78285337  0.92891966    -0.73000
O1388       O  0.96476893  0.87786253  0.86728842    -0.74000
O1389       O  0.96685779  0.78766736  0.86526611    -0.62600
O1390       O  0.96644091  0.87875618  0.93034507    -0.71000
O1391       O  0.70614782  0.88264812  0.92883516    -0.70500
O1392       O  0.70672222  0.78788544  0.86698372    -0.61800
O1393       O  0.70457007  0.87820348  0.86498546    -0.74300
O1394       O  0.70695026  0.78653310  0.93014968    -0.73100
Cu1395     Cu  0.96379382  0.83160279  0.89844300     1.04600
Cu1396     Cu  0.70868657  0.83400354  0.89821071     1.04300
C1397       C  0.00385961  0.76834493  0.93847082     0.93200
C1398       C  0.00057482  0.88931483  0.85439302     0.92400
C1399       C  0.00379766  0.77653612  0.85439232     0.84500
C1400       C  0.00299166  0.89698120  0.93855208     0.90800
O1401       O  0.94949923  0.96390239  0.47038489    -0.73000
O1402       O  0.71288714  0.96664707  0.53280030    -0.74000
O1403       O  0.95038212  0.96604419  0.53292173    -0.62600
O1404       O  0.71209774  0.96371967  0.47020393    -0.71000
O1405       O  0.71362366  0.70370553  0.46875979    -0.70500
O1406       O  0.95203111  0.70605700  0.53202504    -0.61800
O1407       O  0.71475036  0.70665319  0.53145023    -0.74300
O1408       O  0.95088449  0.70390385  0.46932679    -0.73100
Cu1409     Cu  0.99784587  0.96257914  0.50163944     1.04600
Cu1410     Cu  0.99954809  0.70762647  0.50033441     1.04300
C1411       C  0.93368707  0.66694392  0.46095012     0.93200
C1412       C  0.73019779  0.67028755  0.54104873     0.92400
C1413       C  0.93495308  0.66955520  0.54145690     0.84500
C1414       C  0.72897771  0.66667911  0.46042993     0.90800
C1415       C  0.96048813  0.91845005  0.18800444    -0.21300
C1416       C  0.99999511  0.91458305  0.17236288    -0.09400
C1417       C  0.70572878  0.93167072  0.18516046     0.29500
C1418       C  0.70455964  0.95447584  0.21204685    -0.21300
C1419       C  0.99802932  0.96069824  0.22752162    -0.09400
C1420       C  0.95908193  0.94101767  0.21501219     0.29500
F1421       F  0.91849552  0.94697143  0.22658623    -0.19900
H1422       H  0.92995380  0.90481417  0.17894811     0.17900
H1423       H  0.73498175  0.97006904  0.21975098     0.17900
F1424       F  0.74508363  0.92798033  0.17126211    -0.19900
C1425       C  0.69489150  0.76017563  0.19501313    -0.21300
C1426       C  0.99639735  0.75083007  0.17298069    -0.09400
C1427       C  0.95865935  0.72626272  0.18112886     0.29500
C1428       C  0.95626868  0.70672836  0.20923863    -0.21300
C1429       C  0.99305030  0.70713972  0.22879760    -0.09400
C1430       C  0.69150906  0.74107732  0.22340464     0.29500
F1431       F  0.70863740  0.76545333  0.24611103    -0.19900
H1432       H  0.71994013  0.78564535  0.19118608     0.17900
H1433       H  0.92672361  0.68806244  0.21458518     0.17900
F1434       F  0.92446672  0.72016449  0.16183474    -0.19900
C1435       C  0.94065159  0.96049809  0.28436277    -0.21300
C1436       C  0.95972484  0.66681392  0.27297968    -0.09400
C1437       C  0.95377871  0.70578469  0.28987234     0.29500
C1438       C  0.93121755  0.70452897  0.31684868    -0.21300
C1439       C  0.91428543  0.66458266  0.32835974    -0.09400
C1440       C  0.91840106  0.95929587  0.31145075     0.29500
F1441       F  0.90169931  0.91986245  0.32121671    -0.19900
H1442       H  0.94539077  0.92912526  0.27365326     0.17900
H1443       H  0.92805856  0.73503436  0.32915287     0.17900
F1444       F  0.63922558  0.74500678  0.28163538    -0.19900
C1445       C  0.73811520  0.69258724  0.27699686    -0.21300
C1446       C  0.70531458  0.66021036  0.27129775    -0.09400
C1447       C  0.70699776  0.95525585  0.28973404     0.29500
C1448       C  0.72847794  0.95663667  0.31728803    -0.21300
C1449       C  0.75183399  0.66143277  0.32610772    -0.09400
C1450       C  0.75921311  0.69488978  0.30475970     0.29500
F1451       F  0.78873597  0.72842581  0.30996433    -0.19900
H1452       H  0.75097681  0.71336527  0.25970568     0.17900
H1453       H  0.72648030  0.92792064  0.33173541     0.17900
F1454       F  0.02045827  0.91657972  0.28147200    -0.19900
C1455       C  0.97825673  0.74174679  0.77528223    -0.21300
C1456       C  0.67318861  0.70587802  0.77197554    -0.09400
C1457       C  0.70762612  0.70207916  0.79338971     0.29500
C1458       C  0.70613919  0.72467586  0.82022484    -0.21300
C1459       C  0.00521433  0.75331703  0.82583066    -0.09400
C1460       C  0.97636978  0.76415703  0.80245704     0.29500
F1461       F  0.94743560  0.79737689  0.80553056    -0.19900
H1462       H  0.95859499  0.75387814  0.75725774     0.17900
H1463       H  0.73099655  0.71853313  0.83705197     0.17900
F1464       F  0.74021201  0.67263844  0.78982836    -0.19900
C1465       C  0.68914986  0.92434290  0.77485138    -0.21300
C1466       C  0.99388569  0.96008737  0.77187608    -0.09400
C1467       C  0.96031971  0.96351123  0.79368741     0.29500
C1468       C  0.96324335  0.94099560  0.82057436    -0.21300
C1469       C  0.99798150  0.91263767  0.82582027    -0.09400
C1470       C  0.69242019  0.90190187  0.80206871     0.29500
F1471       F  0.72155154  0.86873138  0.80482082    -0.19900
H1472       H  0.70800644  0.91236611  0.75656207     0.17900
H1473       H  0.93907714  0.94694393  0.83769986     0.17900
F1474       F  0.92721456  0.65922722  0.79043769    -0.19900
C1475       C  0.74106195  0.97819174  0.72466159    -0.21300
C1476       C  0.70527332  0.67315760  0.72801150    -0.09400
C1477       C  0.70123106  0.70754510  0.70651915     0.29500
C1478       C  0.72393494  0.70621092  0.67976308    -0.21300
C1479       C  0.75270250  0.67200495  0.67419844    -0.09400
C1480       C  0.76338148  0.97630722  0.69751193     0.29500
F1481       F  0.79632170  0.94710191  0.69440791    -0.19900
H1482       H  0.75319398  0.95845670  0.74264340     0.17900
H1483       H  0.71779323  0.73113729  0.66295795     0.17900
F1484       F  0.00496803  0.74003884  0.70997651    -0.19900
C1485       C  0.92411903  0.68909476  0.72576423    -0.21300
C1486       C  0.95972070  0.66037016  0.72861552    -0.09400
C1487       C  0.96289700  0.95994193  0.70684584     0.29500
C1488       C  0.94031684  0.96293043  0.67998187    -0.21300
C1489       C  0.91214931  0.66458703  0.67477502    -0.09400
C1490       C  0.90167000  0.69249552  0.69857328     0.29500
F1491       F  0.86882528  0.72196631  0.69587093    -0.19900
H1492       H  0.91238335  0.70807700  0.74410440     0.17900
H1493       H  0.94607001  0.93864207  0.66282368     0.17900
F1494       F  0.65857946  0.92678404  0.71002266    -0.19900
loop_ 
_geom_bond_atom_site_label_1 
_geom_bond_atom_site_label_2 
_geom_bond_distance 
_geom_bond_site_symmetry_2 
_ccdc_geom_bond_type 
C1          C158   1.554       .  S
C1          C626   1.555   1_565  S
C1          C470   1.555       .  S
C1          C646   1.556   1_565  S
O2          Cu10   1.974       .  S
O2          C178   1.274       .  A
O3          Cu10   2.013       .  S
O3          C179   1.277       .  A
O4          Cu10   2.025       .  S
O4          C180   1.280       .  A
O5          Cu10   2.003       .  S
O5          C181   1.278       .  A
O6          Cu11   1.984       .  S
O6           C15   1.275       .  A
O7          Cu11   2.025       .  S
O7           C14   1.279       .  A
O8          Cu11   2.032       .  S
O8           C13   1.281       .  A
O9          Cu11   2.008       .  S
O9           C12   1.279       .  A
Cu10       Cu177   2.373       .  S
Cu11       Cu342   2.373   1_545  S
C12         O334   1.274   1_545  A
C12         C161   1.465   1_545  S
C13         O335   1.277   1_545  A
C13          C84   1.480       .  S
C14         O336   1.280   1_545  A
C14          C85   1.481       .  S
C15         O337   1.278   1_545  A
C15         C151   1.466       .  S
O16         Cu24   1.998       .  S
O16         C192   1.277       .  A
O17         Cu24   2.025       .  S
O17         C193   1.279       .  A
O18         Cu24   2.031       .  S
O18         C194   1.281       .  A
O19         Cu24   2.003       .  S
O19         C195   1.278       .  A
O20         Cu25   1.991       .  S
O20          C29   1.276   1_545  A
O21         Cu25   2.024       .  S
O21          C28   1.279   1_545  A
O22         Cu25   2.027       .  S
O22          C27   1.280   1_545  A
O23         Cu25   2.004       .  S
O23          C26   1.278   1_545  A
Cu24       Cu191   2.371       .  S
Cu25       Cu356   2.371   1_545  S
C26         O348   1.277       .  A
C26         C121   1.476       .  S
C27         O349   1.279       .  A
C27          C83   1.481   1_565  S
C28         O350   1.281       .  A
C28          C86   1.482   1_565  S
C29         O351   1.278       .  A
C29         C111   1.478       .  S
O30         Cu38   2.026   1_554  S
O30        C1036   1.280       .  A
O31        Cu204   2.026       .  S
O31        C1037   1.280       .  A
O32         Cu38   2.020       .  S
O32        C1038   1.278       .  A
O33        Cu204   2.021   1_554  S
O33        C1039   1.279       .  A
O34        Cu205   2.020   1_554  S
O34          C43   1.280       .  A
O35         Cu39   2.020   1_545  S
O35          C42   1.280       .  A
O36        Cu205   2.018       .  S
O36          C41   1.278       .  A
O37         Cu39   2.018   1_544  S
O37          C40   1.278       .  A
Cu38        O363   2.026   1_545  S
Cu38        O365   2.021   1_546  S
Cu38      Cu1035   2.372   1_445  S
Cu39        O366   2.020   1_556  S
Cu39        O368   2.018       .  S
Cu39       Cu536   2.372   1_565  S
C40         O528   1.280       .  A
C40          C55   1.478       .  S
C41         O529   1.280       .  A
C41          C72   1.478       .  S
C42         O530   1.278       .  A
C42          C69   1.476       .  S
C43         O531   1.279       .  A
C43          C56   1.477       .  S
O44         Cu52   1.989       .  S
O44        C1050   1.276       .  A
O45         Cu52   2.021       .  S
O45        C1051   1.278       .  A
O46         Cu52   2.027       .  S
O46        C1052   1.280       .  A
O47         Cu52   2.006       .  S
O47        C1053   1.279   1_455  A
O48         Cu53   1.990       .  S
O48          C57   1.276       .  A
O49         Cu53   2.015       .  S
O49          C56   1.278       .  A
O50         Cu53   2.022       .  S
O50          C55   1.280       .  A
O51         Cu53   2.001       .  S
O51          C54   1.279       .  A
Cu52      Cu1049   2.372   1_455  S
Cu53       Cu550   2.372       .  S
C54         O542   1.276       .  A
C54          C88   1.477       .  S
C55         O543   1.278       .  A
C56         O544   1.280       .  A
C57         O545   1.279       .  A
C57          C98   1.474       .  S
C58         C101   1.574   1_565  S
C58         C108   1.550   1_565  S
C58         C423   1.554       .  S
C58         C616   1.570       .  S
O59         Cu67   2.013       .  S
O59          C69   1.277       .  A
O60         Cu67   1.975       .  S
O60          C70   1.274       .  A
O61         Cu67   2.003       .  S
O61          C71   1.278       .  A
O62         Cu67   2.024       .  S
O62          C72   1.280       .  A
O63         Cu68   2.019       .  S
O63        C1068   1.278       .  A
O64         Cu68   1.980       .  S
O64        C1067   1.275       .  A
O65         Cu68   2.005       .  S
O65        C1066   1.278       .  A
O66         Cu68   2.026       .  S
O66        C1065   1.280       .  A
Cu67       Cu566   2.374       .  S
Cu68      Cu1063   2.374   1_455  S
C69         O564   1.280       .  A
C70         O563   1.278       .  A
C70         C141   1.465       .  S
C71         O562   1.275       .  A
C71         C131   1.465       .  S
C72         O561   1.278       .  A
O73         Cu81   2.026       .  S
O73         C249   1.280       .  A
O74       Cu1077   2.024   1_455  S
O74         C250   1.280       .  A
O75         Cu81   2.022       .  S
O75         C251   1.279       .  A
O76       Cu1077   2.024   1_455  S
O76         C252   1.279       .  A
O77       Cu1078   2.031   1_455  S
O77          C86   1.281       .  A
O78         Cu82   2.031       .  S
O78          C85   1.281       .  A
O79       Cu1078   2.025   1_455  S
O79          C84   1.279       .  A
O80         Cu82   2.026       .  S
O80          C83   1.279       .  A
Cu81        O572   2.024       .  S
Cu81        O574   2.024       .  S
Cu81       Cu248   2.371       .  S
Cu82        O575   2.031       .  S
Cu82        O577   2.025       .  S
Cu82       Cu413   2.371   1_545  S
C83         O405   1.280   1_545  A
C84         O406   1.280   1_545  A
C85         O407   1.279   1_545  A
C86         O408   1.279   1_545  A
C87          C88   1.400       .  A
C87          C92   1.394       .  A
C87          H94   1.083       .  S
C88         C587   1.403       .  A
C89          C90   1.393       .  A
C89        C1084   1.403   1_455  A
C89          F96   1.358       .  S
C90        C1087   1.415   1_455  A
C90          H95   1.083       .  S
C91         C224   1.554       .  S
C91          C92   1.425       .  A
C91         C588   1.415       .  A
C92          F93   1.356       .  S
C97         C102   1.401       .  A
C97        C1094   1.404   1_455  A
C97         H104   1.084       .  S
C98          C99   1.400       .  A
C98         C595   1.404       .  A
C99         C100   1.393       .  A
C99         F106   1.358       .  S
C100        C101   1.417       .  A
C100        H105   1.076       .  S
C101        C600   1.414       .  A
C102       C1097   1.414   1_455  A
C102        F103   1.354       .  S
C107        C112   1.394       .  A
C107        C274   1.415       .  A
C107        H114   1.078       .  S
C108        C109   1.419       .  A
C108        C439   1.415   1_545  A
C109        C110   1.394       .  A
C109        F614   1.355       .  S
C110        C111   1.400   1_545  A
C110        H115   1.083       .  S
C111        C444   1.403       .  A
C112        C277   1.403       .  A
C112        F113   1.358       .  S
F116       C1105   1.355       .  S
C117        C118   1.403   1_545  A
C117        C122   1.399       .  A
C117        H124   1.067       .  S
C118       C1054   1.570   1_455  S
C118        C451   1.423       .  A
C119        C120   1.395       .  A
C119        C284   1.423       .  A
C119       F1122   1.355       .  S
C120        C287   1.398       .  A
C120        H125   1.083       .  S
C121        C122   1.407   1_565  A
C121        C452   1.398       .  A
C122        F123   1.358       .  S
F126        C617   1.355       .  S
C127        C132   1.399       .  A
C127        C626   1.408       .  A
C127        H134   1.072       .  S
C128        C997   1.555   1_445  S
C128        C129   1.423       .  A
C128       C1123   1.408   1_455  A
C129        C130   1.388       .  A
C129        F136   1.357       .  S
C130       C1127   1.393       .  A
C130        H135   1.084       .  S
C131        C132   1.406       .  A
C131        C628   1.393       .  A
C132        F133   1.358       .  S
C137        C142   1.400       .  A
C137       C1134   1.408   1_455  A
C137        H144   1.072       .  S
C138        C167   1.555       .  S
C138        C139   1.422       .  A
C138        C635   1.408       .  A
C139        C140   1.387       .  A
C139        F312   1.357       .  S
C140        C141   1.394       .  A
C140        H145   1.084       .  S
C141        C640   1.406       .  A
C142       C1137   1.406   1_455  A
C142        F143   1.358       .  S
F146        C471   1.357       .  S
C147        C152   1.399       .  A
C147        C314   1.407       .  A
C147        H154   1.071       .  S
C148        C997   1.556   1_445  S
C148        C149   1.424       .  A
C148        C479   1.407   1_545  A
C149        C150   1.389       .  A
C149       F1152   1.357       .  S
C150        C151   1.393       .  A
C150        H155   1.084       .  S
C151        C484   1.406   1_545  A
C152        C317   1.406       .  A
C152        F153   1.358       .  S
F156        C647   1.357       .  S
C157        C158   1.408   1_545  A
C157        C162   1.399       .  A
C157        H164   1.072       .  S
C158        C491   1.422       .  A
C159        C160   1.388       .  A
C159        C324   1.422       .  A
C159        F664   1.357       .  S
C160        C327   1.394       .  A
C160        H165   1.084       .  S
C161        C162   1.406   1_565  A
C161        C492   1.394       .  A
C162        F163   1.358       .  S
F166       C1155   1.357       .  S
C167        C792   1.555       .  S
C167        C812   1.556       .  S
C167        C324   1.554       .  S
O168       Cu176   1.974       .  S
O168        C344   1.274       .  A
O169       Cu176   2.013       .  S
O169        C345   1.277       .  A
O170       Cu176   2.025       .  S
O170        C346   1.280       .  A
O171       Cu176   2.003       .  S
O171        C347   1.278       .  A
O172       Cu177   1.984       .  S
O172        C181   1.275       .  A
O173       Cu177   2.025       .  S
O173        C180   1.279       .  A
O174       Cu177   2.032       .  S
O174        C179   1.281       .  A
O175       Cu177   2.008       .  S
O175        C178   1.279       .  A
Cu176      Cu343   2.373       .  S
C178        C327   1.465       .  S
C179        C250   1.480       .  S
C180        C251   1.481       .  S
C181        C317   1.466       .  S
O182       Cu190   1.999       .  S
O182        C358   1.277       .  A
O183       Cu190   2.025       .  S
O183        C359   1.279       .  A
O184       Cu190   2.031       .  S
O184        C360   1.281       .  A
O185       Cu190   2.003       .  S
O185        C361   1.278       .  A
O186       Cu191   1.991       .  S
O186        C195   1.276       .  A
O187       Cu191   2.024       .  S
O187        C194   1.279       .  A
O188       Cu191   2.027       .  S
O188        C193   1.280       .  A
O189       Cu191   2.004       .  S
O189        C192   1.278       .  A
Cu190      Cu357   2.371       .  S
C192        C287   1.476       .  S
C193        C249   1.481       .  S
C194        C252   1.482       .  S
C195        C277   1.478       .  S
O196       Cu204   2.026   1_554  S
O196       C1202   1.280       .  A
O197       Cu370   2.026       .  S
O197       C1203   1.280       .  A
O198       Cu204   2.020       .  S
O198       C1204   1.278       .  A
O199       Cu370   2.021   1_554  S
O199       C1205   1.279       .  A
O200       Cu371   2.020   1_554  S
O200        C209   1.280       .  A
O201       Cu205   2.020       .  S
O201        C208   1.280       .  A
O202       Cu371   2.018       .  S
O202        C207   1.278       .  A
O203       Cu205   2.018   1_554  S
O203        C206   1.278       .  A
Cu204     Cu1201   2.372   1_455  S
Cu205      Cu702   2.372       .  S
C206        O694   1.280       .  A
C206        C221   1.478       .  S
C207        O695   1.280       .  A
C207        C238   1.478       .  S
C208        O696   1.278       .  A
C208        C235   1.476       .  S
C209        O697   1.279       .  A
C209        C222   1.477       .  S
O210       Cu218   1.989       .  S
O210       C1216   1.276       .  A
O211       Cu218   2.021       .  S
O211       C1217   1.278       .  A
O212       Cu218   2.027       .  S
O212       C1218   1.280       .  A
O213       Cu218   2.006       .  S
O213       C1219   1.279   1_455  A
O214       Cu219   1.989       .  S
O214        C223   1.276       .  A
O215       Cu219   2.015       .  S
O215        C222   1.278       .  A
O216       Cu219   2.022       .  S
O216        C221   1.280       .  A
O217       Cu219   2.001       .  S
O217        C220   1.279       .  A
Cu218     Cu1215   2.372   1_455  S
Cu219      Cu716   2.372       .  S
C220        O708   1.276       .  A
C220        C254   1.477       .  S
C221        O709   1.278       .  A
C222        O710   1.280       .  A
C223        O711   1.279       .  A
C223        C264   1.474       .  S
C224        C267   1.574       .  S
C224        C274   1.550       .  S
C224        C782   1.570       .  S
O225       Cu233   2.012       .  S
O225        C235   1.277       .  A
O226       Cu233   1.975       .  S
O226        C236   1.274       .  A
O227       Cu233   2.003       .  S
O227        C237   1.278       .  A
O228       Cu233   2.024       .  S
O228        C238   1.280       .  A
O229       Cu234   2.020       .  S
O229       C1234   1.278       .  A
O230       Cu234   1.980       .  S
O230       C1233   1.275       .  A
O231       Cu234   2.005       .  S
O231       C1232   1.278       .  A
O232       Cu234   2.026       .  S
O232       C1231   1.280       .  A
Cu233      Cu732   2.374       .  S
Cu234     Cu1229   2.374   1_455  S
C235        O730   1.280       .  A
C236        O729   1.278       .  A
C236        C307   1.465       .  S
C237        O728   1.275       .  A
C237        C297   1.465       .  S
C238        O727   1.278       .  A
O239       Cu247   2.026       .  S
O239        C415   1.280       .  A
O240      Cu1243   2.024   1_455  S
O240        C416   1.280       .  A
O241       Cu247   2.022       .  S
O241        C417   1.279       .  A
O242      Cu1243   2.024   1_455  S
O242        C418   1.279       .  A
O243      Cu1244   2.031   1_455  S
O243        C252   1.281       .  A
O244       Cu248   2.031       .  S
O244        C251   1.281       .  A
O245      Cu1244   2.025   1_455  S
O245        C250   1.279       .  A
O246       Cu248   2.026       .  S
O246        C249   1.279       .  A
Cu247       O738   2.024       .  S
Cu247       O740   2.024       .  S
Cu247      Cu414   2.371       .  S
Cu248       O741   2.031       .  S
Cu248       O743   2.025       .  S
C253        C254   1.400       .  A
C253        C258   1.394       .  A
C253        H260   1.083       .  S
C254        C753   1.403       .  A
C255       C1250   1.403   1_455  A
C255        C256   1.393       .  A
C255        F262   1.358       .  S
C256       C1253   1.415   1_455  A
C256        H261   1.083       .  S
C257        C390   1.554       .  S
C257        C754   1.415       .  A
C257        C258   1.425       .  A
C258        F259   1.356       .  S
C263       C1260   1.404   1_455  A
C263        C268   1.401       .  A
C263        H270   1.084       .  S
C264        C761   1.404       .  A
C264        C265   1.400       .  A
C265        C266   1.393       .  A
C265        F272   1.358       .  S
C266        C267   1.417       .  A
C266        H271   1.076       .  S
C267        C766   1.414       .  A
C268       C1263   1.414   1_455  A
C268        F269   1.354       .  S
C273        C440   1.415       .  A
C273        C278   1.394       .  A
C273        H280   1.078       .  S
C274        C275   1.419       .  A
C275        C276   1.394       .  A
C275        F780   1.355       .  S
C276        C277   1.400       .  A
C276        H281   1.083       .  S
C278        C443   1.403       .  A
C278        F279   1.358       .  S
F282       C1271   1.355       .  S
C283        C284   1.403       .  A
C283        C288   1.399       .  A
C283        H290   1.067       .  S
C284       C1220   1.570   1_455  S
C285        C450   1.423       .  A
C285        C286   1.395       .  A
C285       F1288   1.355       .  S
C286        C453   1.398       .  A
C286        H291   1.083       .  S
C287        C288   1.407       .  A
C288        F289   1.358       .  S
F292        C783   1.355       .  S
C293        C792   1.408       .  A
C293        C298   1.399       .  A
C293        H300   1.072       .  S
C294       C1163   1.555   1_455  S
C294       C1289   1.408   1_455  A
C294        C295   1.423       .  A
C295        C296   1.388       .  A
C295        F302   1.357       .  S
C296       C1293   1.393       .  A
C296        H301   1.084       .  S
C297        C794   1.393       .  A
C297        C298   1.406       .  A
C298        F299   1.358       .  S
C303       C1300   1.408   1_455  A
C303        C308   1.400       .  A
C303        H310   1.072       .  S
C304        C333   1.555       .  S
C304        C801   1.408       .  A
C304        C305   1.422       .  A
C305        C306   1.387       .  A
C305        F478   1.357       .  S
C306        C307   1.394       .  A
C306        H311   1.084       .  S
C307        C806   1.406       .  A
C308       C1303   1.406   1_455  A
C308        F309   1.358       .  S
C313        C480   1.407       .  A
C313        C318   1.399       .  A
C313        H320   1.071       .  S
C314       C1163   1.556   1_455  S
C314        C315   1.424       .  A
C315        C316   1.389       .  A
C315       F1318   1.357       .  S
C316        C317   1.393       .  A
C316        H321   1.084       .  S
C318        C483   1.406       .  A
C318        F319   1.358       .  S
F322        C813   1.357       .  S
C323        C324   1.408       .  A
C323        C328   1.399       .  A
C323        H330   1.072       .  S
C325        C490   1.422       .  A
C325        C326   1.388       .  A
C325        F830   1.357       .  S
C326        C493   1.394       .  A
C326        H331   1.084       .  S
C327        C328   1.406       .  A
C328        F329   1.358       .  S
F332       C1321   1.357       .  S
C333        C958   1.555       .  S
C333        C978   1.556       .  S
C333        C490   1.554       .  S
O334       Cu342   1.974       .  S
O335       Cu342   2.013       .  S
O336       Cu342   2.025       .  S
O337       Cu342   2.003       .  S
O338       Cu343   1.984       .  S
O338        C347   1.275       .  A
O339       Cu343   2.025       .  S
O339        C346   1.279       .  A
O340       Cu343   2.032       .  S
O340        C345   1.281       .  A
O341       Cu343   2.008       .  S
O341        C344   1.279       .  A
C344        C493   1.465       .  S
C345        C416   1.480       .  S
C346        C417   1.481       .  S
C347        C483   1.466       .  S
O348       Cu356   1.998       .  S
O349       Cu356   2.025       .  S
O350       Cu356   2.031       .  S
O351       Cu356   2.003       .  S
O352       Cu357   1.991       .  S
O352        C361   1.276       .  A
O353       Cu357   2.024       .  S
O353        C360   1.279       .  A
O354       Cu357   2.027       .  S
O354        C359   1.280       .  A
O355       Cu357   2.004       .  S
O355        C358   1.278       .  A
C358        C453   1.476       .  S
C359        C415   1.481       .  S
C360        C418   1.482       .  S
C361        C443   1.478       .  S
O362       Cu370   2.026   1_554  S
O362       C1368   1.280       .  A
O363       C1369   1.280       .  A
O364       Cu370   2.020       .  S
O364       C1370   1.278       .  A
O365       C1371   1.279       .  A
O366        C375   1.280       .  A
O367       Cu371   2.020       .  S
O367        C374   1.280       .  A
O368        C373   1.278       .  A
O369       Cu371   2.018   1_554  S
O369        C372   1.278       .  A
Cu370     Cu1367   2.372   1_455  S
Cu371      Cu868   2.372       .  S
C372        O860   1.280       .  A
C372        C387   1.478       .  S
C373        O861   1.280       .  A
C373        C404   1.478       .  S
C374        O862   1.278       .  A
C374        C401   1.476       .  S
C375        O863   1.279       .  A
C375        C388   1.477       .  S
O376       Cu384   1.989       .  S
O376       C1382   1.276       .  A
O377       Cu384   2.021       .  S
O377       C1383   1.278       .  A
O378       Cu384   2.027       .  S
O378       C1384   1.280       .  A
O379       Cu384   2.006       .  S
O379       C1385   1.279   1_455  A
O380       Cu385   1.989       .  S
O380        C389   1.276       .  A
O381       Cu385   2.015       .  S
O381        C388   1.278       .  A
O382       Cu385   2.022       .  S
O382        C387   1.280       .  A
O383       Cu385   2.001       .  S
O383        C386   1.279       .  A
Cu384     Cu1381   2.372   1_455  S
Cu385      Cu882   2.372       .  S
C386        O874   1.276       .  A
C386        C420   1.477       .  S
C387        O875   1.278       .  A
C388        O876   1.280       .  A
C389        O877   1.279       .  A
C389        C430   1.474       .  S
C390        C433   1.574       .  S
C390        C440   1.550       .  S
C390        C948   1.570       .  S
O391       Cu399   2.013       .  S
O391        C401   1.277       .  A
O392       Cu399   1.975       .  S
O392        C402   1.274       .  A
O393       Cu399   2.003       .  S
O393        C403   1.278       .  A
O394       Cu399   2.024       .  S
O394        C404   1.280       .  A
O395       Cu400   2.020       .  S
O395       C1400   1.278       .  A
O396       Cu400   1.980       .  S
O396       C1399   1.275       .  A
O397       Cu400   2.005       .  S
O397       C1398   1.278       .  A
O398       Cu400   2.026       .  S
O398       C1397   1.280       .  A
Cu399      Cu898   2.374       .  S
Cu400     Cu1395   2.374   1_455  S
C401        O896   1.280       .  A
C402        O895   1.278       .  A
C402        C473   1.465       .  S
C403        O894   1.275       .  A
C403        C463   1.465       .  S
C404        O893   1.278       .  A
O405       Cu413   2.026       .  S
O406      Cu1409   2.024   1_455  S
O407       Cu413   2.022       .  S
O408      Cu1409   2.024   1_455  S
O409      Cu1410   2.031   1_455  S
O409        C418   1.281       .  A
O410       Cu414   2.031       .  S
O410        C417   1.281       .  A
O411      Cu1410   2.025   1_455  S
O411        C416   1.279       .  A
O412       Cu414   2.026       .  S
O412        C415   1.279       .  A
Cu413       O904   2.024       .  S
Cu413       O906   2.024       .  S
Cu414       O907   2.031       .  S
Cu414       O909   2.025       .  S
C419        C420   1.400       .  A
C419        C424   1.394       .  A
C419        H426   1.083       .  S
C420        C919   1.403       .  A
C421       C1416   1.403   1_455  A
C421        C422   1.393       .  A
C421        F428   1.358       .  S
C422       C1419   1.415   1_455  A
C422        H427   1.083       .  S
C423        C920   1.415       .  A
C423        C424   1.425       .  A
C424        F425   1.356       .  S
C429       C1426   1.404   1_455  A
C429        C434   1.401       .  A
C429        H436   1.084       .  S
C430        C927   1.404       .  A
C430        C431   1.400       .  A
C431        C432   1.393       .  A
C431        F438   1.358       .  S
C432        C433   1.417       .  A
C432        H437   1.076       .  S
C433        C932   1.414       .  A
C434       C1429   1.414   1_455  A
C434        F435   1.354       .  S
C439        C444   1.394       .  A
C439        H446   1.078       .  S
C440        C441   1.419       .  A
C441        C442   1.394       .  A
C441        F946   1.355       .  S
C442        C443   1.400       .  A
C442        H447   1.083       .  S
C444        F445   1.358       .  S
F448       C1437   1.355       .  S
C449        C450   1.403       .  A
C449        C454   1.399       .  A
C449        H456   1.067       .  S
C450       C1386   1.570   1_455  S
C451        C452   1.395       .  A
C451       F1454   1.355       .  S
C452        H457   1.083       .  S
C453        C454   1.407       .  A
C454        F455   1.358       .  S
F458        C949   1.355       .  S
C459        C958   1.408       .  A
C459        C464   1.399       .  A
C459        H466   1.072       .  S
C460       C1329   1.555   1_455  S
C460       C1455   1.408   1_455  A
C460        C461   1.423       .  A
C461        C462   1.388       .  A
C461        F468   1.357       .  S
C462       C1459   1.393       .  A
C462        H467   1.084       .  S
C463        C960   1.393       .  A
C463        C464   1.406       .  A
C464        F465   1.358       .  S
C469       C1466   1.408   1_455  A
C469        C474   1.400       .  A
C469        H476   1.072       .  S
C470        C967   1.408       .  A
C470        C471   1.422       .  A
C471        C472   1.387       .  A
C472        C473   1.394       .  A
C472        H477   1.084       .  S
C473        C972   1.406       .  A
C474       C1469   1.406   1_455  A
C474        F475   1.358       .  S
C479        C484   1.399       .  A
C479        H486   1.071       .  S
C480       C1329   1.556   1_455  S
C480        C481   1.424       .  A
C481        C482   1.389       .  A
C481       F1484   1.357       .  S
C482        C483   1.393       .  A
C482        H487   1.084       .  S
C484        F485   1.358       .  S
F488        C979   1.357       .  S
C489        C490   1.408       .  A
C489        C494   1.399       .  A
C489        H496   1.072       .  S
C491        C492   1.388       .  A
C491        F996   1.357       .  S
C492        H497   1.084       .  S
C493        C494   1.406       .  A
C494        F495   1.358       .  S
F498       C1487   1.357       .  S
C499       C1124   1.555   1_565  S
C499        C968   1.555       .  S
C499       C1144   1.556   1_565  S
C499        C656   1.554       .  S
O500       Cu508   1.974       .  S
O500        C676   1.274       .  A
O501       Cu508   2.013       .  S
O501        C677   1.277       .  A
O502       Cu508   2.025       .  S
O502        C678   1.280       .  A
O503       Cu508   2.003       .  S
O503        C679   1.278       .  A
O504       Cu509   1.984       .  S
O504        C513   1.275       .  A
O505       Cu509   2.025       .  S
O505        C512   1.279       .  A
O506       Cu509   2.032       .  S
O506        C511   1.281       .  A
O507       Cu509   2.008       .  S
O507        C510   1.279       .  A
Cu508      Cu675   2.373       .  S
Cu509      Cu840   2.373   1_545  S
C510        O832   1.274   1_545  A
C510        C659   1.465   1_545  S
C511        O833   1.277   1_545  A
C511        C582   1.480       .  S
C512        O834   1.280   1_545  A
C512        C583   1.481       .  S
C513        O835   1.278   1_545  A
C513        C649   1.466       .  S
O514       Cu522   1.998       .  S
O514        C690   1.277       .  A
O515       Cu522   2.025       .  S
O515        C691   1.279       .  A
O516       Cu522   2.031       .  S
O516        C692   1.281       .  A
O517       Cu522   2.003       .  S
O517        C693   1.278       .  A
O518       Cu523   1.991       .  S
O518        C527   1.276   1_545  A
O519       Cu523   2.024       .  S
O519        C526   1.279   1_545  A
O520       Cu523   2.027       .  S
O520        C525   1.280   1_545  A
O521       Cu523   2.004       .  S
O521        C524   1.278   1_545  A
Cu522      Cu689   2.371       .  S
Cu523      Cu854   2.371   1_545  S
C524        O846   1.277       .  A
C524        C619   1.476       .  S
C525        O847   1.279       .  A
C525        C581   1.481   1_565  S
C526        O848   1.281       .  A
C526        C584   1.482   1_565  S
C527        O849   1.278       .  A
C527        C609   1.478       .  S
O528       Cu536   2.026   1_554  S
O529       Cu702   2.026       .  S
O530       Cu536   2.020       .  S
O531       Cu702   2.021   1_554  S
O532       Cu703   2.020   1_554  S
O532        C541   1.280       .  A
O533       Cu537   2.020   1_545  S
O533        C540   1.280       .  A
O534       Cu703   2.018       .  S
O534        C539   1.278       .  A
O535       Cu537   2.018   1_544  S
O535        C538   1.278       .  A
Cu536       O861   2.026   1_545  S
Cu536       O863   2.021   1_546  S
Cu537       O864   2.020   1_556  S
Cu537       O866   2.018       .  S
Cu537     Cu1034   2.372   1_565  S
C538       O1026   1.280       .  A
C538        C553   1.478       .  S
C539       O1027   1.280       .  A
C539        C570   1.478       .  S
C540       O1028   1.278       .  A
C540        C567   1.476       .  S
C541       O1029   1.279       .  A
C541        C554   1.477       .  S
O542       Cu550   1.989       .  S
O543       Cu550   2.021       .  S
O544       Cu550   2.027       .  S
O545       Cu550   2.006       .  S
O546       Cu551   1.990       .  S
O546        C555   1.276       .  A
O547       Cu551   2.015       .  S
O547        C554   1.278       .  A
O548       Cu551   2.022       .  S
O548        C553   1.280       .  A
O549       Cu551   2.001       .  S
O549        C552   1.279       .  A
Cu551     Cu1048   2.372       .  S
C552       O1040   1.276       .  A
C552        C586   1.477       .  S
C553       O1041   1.278       .  A
C554       O1042   1.280       .  A
C555       O1043   1.279       .  A
C555        C596   1.474       .  S
C556        C921   1.554       .  S
C556        C599   1.574   1_565  S
C556        C606   1.550   1_565  S
C556       C1114   1.570       .  S
O557       Cu565   2.013       .  S
O557        C567   1.277       .  A
O558       Cu565   1.975       .  S
O558        C568   1.274       .  A
O559       Cu565   2.003       .  S
O559        C569   1.278       .  A
O560       Cu565   2.024       .  S
O560        C570   1.280       .  A
O561       Cu566   2.019       .  S
O562       Cu566   1.980       .  S
O563       Cu566   2.005       .  S
O564       Cu566   2.026       .  S
Cu565     Cu1064   2.374       .  S
C567       O1062   1.280       .  A
C568       O1061   1.278       .  A
C568        C639   1.465       .  S
C569       O1060   1.275       .  A
C569        C629   1.465       .  S
C570       O1059   1.278       .  A
O571       Cu579   2.026       .  S
O571        C747   1.280       .  A
O572        C748   1.280       .  A
O573       Cu579   2.022       .  S
O573        C749   1.279       .  A
O574        C750   1.279       .  A
O575        C584   1.281       .  A
O576       Cu580   2.031       .  S
O576        C583   1.281       .  A
O577        C582   1.279       .  A
O578       Cu580   2.026       .  S
O578        C581   1.279       .  A
Cu579      O1070   2.024       .  S
Cu579      O1072   2.024       .  S
Cu579      Cu746   2.371       .  S
Cu580      O1073   2.031       .  S
Cu580      O1075   2.025       .  S
Cu580      Cu911   2.371   1_545  S
C581        O903   1.280   1_545  A
C582        O904   1.280   1_545  A
C583        O905   1.279   1_545  A
C584        O906   1.279   1_545  A
C585        C586   1.400       .  A
C585        C590   1.394       .  A
C585        H592   1.083       .  S
C586       C1085   1.403       .  A
C587        C588   1.393       .  A
C587        F594   1.358       .  S
C588        H593   1.083       .  S
C589        C722   1.554       .  S
C589       C1086   1.415       .  A
C589        C590   1.425       .  A
C590        F591   1.356       .  S
C595        C600   1.401       .  A
C595        H602   1.084       .  S
C596       C1093   1.404       .  A
C596        C597   1.400       .  A
C597        C598   1.393       .  A
C597        F604   1.358       .  S
C598        C599   1.417       .  A
C598        H603   1.076       .  S
C599       C1098   1.414       .  A
C600        F601   1.354       .  S
C605        C772   1.415       .  A
C605        C610   1.394       .  A
C605        H612   1.078       .  S
C606        C937   1.415   1_545  A
C606        C607   1.419       .  A
C607        C608   1.394       .  A
C607       F1112   1.355       .  S
C608        C609   1.400   1_545  A
C608        H613   1.083       .  S
C609        C942   1.403       .  A
C610        C775   1.403       .  A
C610        F611   1.358       .  S
C615        C616   1.403   1_545  A
C615        C620   1.399       .  A
C615        H622   1.067       .  S
C616        C949   1.423       .  A
C617        C782   1.423       .  A
C617        C618   1.395       .  A
C618        C785   1.398       .  A
C618        H623   1.083       .  S
C619        C950   1.398       .  A
C619        C620   1.407   1_565  A
C620        F621   1.358       .  S
F624       C1115   1.355       .  S
C625       C1124   1.408       .  A
C625        C630   1.399       .  A
C625        H632   1.072       .  S
C626        C627   1.423       .  A
C627        C628   1.388       .  A
C627        F634   1.357       .  S
C628        H633   1.084       .  S
C629       C1126   1.393       .  A
C629        C630   1.406       .  A
C630        F631   1.358       .  S
C635        C640   1.400       .  A
C635        H642   1.072       .  S
C636        C665   1.555       .  S
C636       C1133   1.408       .  A
C636        C637   1.422       .  A
C637        C638   1.387       .  A
C637        F810   1.357       .  S
C638        C639   1.394       .  A
C638        H643   1.084       .  S
C639       C1138   1.406       .  A
C640        F641   1.358       .  S
F644        C969   1.357       .  S
C645        C812   1.407       .  A
C645        C650   1.399       .  A
C645        H652   1.071       .  S
C646        C977   1.407   1_545  A
C646        C647   1.424       .  A
C647        C648   1.389       .  A
C648        C649   1.393       .  A
C648        H653   1.084       .  S
C649        C982   1.406   1_545  A
C650        C815   1.406       .  A
C650        F651   1.358       .  S
F654       C1145   1.357       .  S
C655        C656   1.408   1_545  A
C655        C660   1.399       .  A
C655        H662   1.072       .  S
C656        C989   1.422       .  A
C657        C822   1.422       .  A
C657        C658   1.388       .  A
C657       F1162   1.357       .  S
C658        C825   1.394       .  A
C658        H663   1.084       .  S
C659        C990   1.394       .  A
C659        C660   1.406   1_565  A
C660        F661   1.358       .  S
C665       C1290   1.555       .  S
C665       C1310   1.556       .  S
C665        C822   1.554       .  S
O666       Cu674   1.974       .  S
O666        C842   1.274       .  A
O667       Cu674   2.013       .  S
O667        C843   1.277       .  A
O668       Cu674   2.025       .  S
O668        C844   1.280       .  A
O669       Cu674   2.003       .  S
O669        C845   1.278       .  A
O670       Cu675   1.984       .  S
O670        C679   1.275       .  A
O671       Cu675   2.025       .  S
O671        C678   1.279       .  A
O672       Cu675   2.032       .  S
O672        C677   1.281       .  A
O673       Cu675   2.008       .  S
O673        C676   1.279       .  A
Cu674      Cu841   2.373       .  S
C676        C825   1.465       .  S
C677        C748   1.480       .  S
C678        C749   1.481       .  S
C679        C815   1.466       .  S
O680       Cu688   1.999       .  S
O680        C856   1.277       .  A
O681       Cu688   2.025       .  S
O681        C857   1.279       .  A
O682       Cu688   2.031       .  S
O682        C858   1.281       .  A
O683       Cu688   2.003       .  S
O683        C859   1.278       .  A
O684       Cu689   1.991       .  S
O684        C693   1.276       .  A
O685       Cu689   2.024       .  S
O685        C692   1.279       .  A
O686       Cu689   2.027       .  S
O686        C691   1.280       .  A
O687       Cu689   2.004       .  S
O687        C690   1.278       .  A
Cu688      Cu855   2.371       .  S
C690        C785   1.476       .  S
C691        C747   1.481       .  S
C692        C750   1.482       .  S
C693        C775   1.478       .  S
O694       Cu702   2.026   1_554  S
O695       Cu868   2.026       .  S
O696       Cu702   2.020       .  S
O697       Cu868   2.021   1_554  S
O698       Cu869   2.020   1_554  S
O698        C707   1.280       .  A
O699       Cu703   2.020       .  S
O699        C706   1.280       .  A
O700       Cu869   2.018       .  S
O700        C705   1.278       .  A
O701       Cu703   2.018   1_554  S
O701        C704   1.278       .  A
Cu703     Cu1200   2.372       .  S
C704       O1192   1.280       .  A
C704        C719   1.478       .  S
C705       O1193   1.280       .  A
C705        C736   1.478       .  S
C706       O1194   1.278       .  A
C706        C733   1.476       .  S
C707       O1195   1.279       .  A
C707        C720   1.477       .  S
O708       Cu716   1.989       .  S
O709       Cu716   2.021       .  S
O710       Cu716   2.027       .  S
O711       Cu716   2.006       .  S
O712       Cu717   1.989       .  S
O712        C721   1.276       .  A
O713       Cu717   2.015       .  S
O713        C720   1.278       .  A
O714       Cu717   2.022       .  S
O714        C719   1.280       .  A
O715       Cu717   2.001       .  S
O715        C718   1.279       .  A
Cu717     Cu1214   2.372       .  S
C718       O1206   1.276       .  A
C718        C752   1.477       .  S
C719       O1207   1.278       .  A
C720       O1208   1.280       .  A
C721       O1209   1.279       .  A
C721        C762   1.474       .  S
C722        C765   1.574       .  S
C722        C772   1.550       .  S
C722       C1280   1.570       .  S
O723       Cu731   2.012       .  S
O723        C733   1.277       .  A
O724       Cu731   1.975       .  S
O724        C734   1.274       .  A
O725       Cu731   2.003       .  S
O725        C735   1.278       .  A
O726       Cu731   2.024       .  S
O726        C736   1.280       .  A
O727       Cu732   2.020       .  S
O728       Cu732   1.980       .  S
O729       Cu732   2.005       .  S
O730       Cu732   2.026       .  S
Cu731     Cu1230   2.374       .  S
C733       O1228   1.280       .  A
C734       O1227   1.278       .  A
C734        C805   1.465       .  S
C735       O1226   1.275       .  A
C735        C795   1.465       .  S
C736       O1225   1.278       .  A
O737       Cu745   2.026       .  S
O737        C913   1.280       .  A
O738        C914   1.280       .  A
O739       Cu745   2.022       .  S
O739        C915   1.279       .  A
O740        C916   1.279       .  A
O741        C750   1.281       .  A
O742       Cu746   2.031       .  S
O742        C749   1.281       .  A
O743        C748   1.279       .  A
O744       Cu746   2.026       .  S
O744        C747   1.279       .  A
Cu745      O1236   2.024       .  S
Cu745      O1238   2.024       .  S
Cu745      Cu912   2.371       .  S
Cu746      O1239   2.031       .  S
Cu746      O1241   2.025       .  S
C751        C752   1.400       .  A
C751        C756   1.394       .  A
C751        H758   1.083       .  S
C752       C1251   1.403       .  A
C753        C754   1.393       .  A
C753        F760   1.358       .  S
C754        H759   1.083       .  S
C755        C888   1.554       .  S
C755       C1252   1.415       .  A
C755        C756   1.425       .  A
C756        F757   1.356       .  S
C761        C766   1.401       .  A
C761        H768   1.084       .  S
C762       C1259   1.404       .  A
C762        C763   1.400       .  A
C763        C764   1.393       .  A
C763        F770   1.358       .  S
C764        C765   1.417       .  A
C764        H769   1.076       .  S
C765       C1264   1.414       .  A
C766        F767   1.354       .  S
C771        C938   1.415       .  A
C771        C776   1.394       .  A
C771        H778   1.078       .  S
C772        C773   1.419       .  A
C773        C774   1.394       .  A
C773       F1278   1.355       .  S
C774        C775   1.400       .  A
C774        H779   1.083       .  S
C776        C941   1.403       .  A
C776        F777   1.358       .  S
C781        C782   1.403       .  A
C781        C786   1.399       .  A
C781        H788   1.067       .  S
C783        C948   1.423       .  A
C783        C784   1.395       .  A
C784        C951   1.398       .  A
C784        H789   1.083       .  S
C785        C786   1.407       .  A
C786        F787   1.358       .  S
F790       C1281   1.355       .  S
C791       C1290   1.408       .  A
C791        C796   1.399       .  A
C791        H798   1.072       .  S
C792        C793   1.423       .  A
C793        C794   1.388       .  A
C793        F800   1.357       .  S
C794        H799   1.084       .  S
C795       C1292   1.393       .  A
C795        C796   1.406       .  A
C796        F797   1.358       .  S
C801        C806   1.400       .  A
C801        H808   1.072       .  S
C802        C831   1.555       .  S
C802       C1299   1.408       .  A
C802        C803   1.422       .  A
C803        C804   1.387       .  A
C803        F976   1.357       .  S
C804        C805   1.394       .  A
C804        H809   1.084       .  S
C805       C1304   1.406       .  A
C806        F807   1.358       .  S
C811        C978   1.407       .  A
C811        C816   1.399       .  A
C811        H818   1.071       .  S
C812        C813   1.424       .  A
C813        C814   1.389       .  A
C814        C815   1.393       .  A
C814        H819   1.084       .  S
C816        C981   1.406       .  A
C816        F817   1.358       .  S
F820       C1311   1.357       .  S
C821        C822   1.408       .  A
C821        C826   1.399       .  A
C821        H828   1.072       .  S
C823        C988   1.422       .  A
C823        C824   1.388       .  A
C823       F1328   1.357       .  S
C824        C991   1.394       .  A
C824        H829   1.084       .  S
C825        C826   1.406       .  A
C826        F827   1.358       .  S
C831       C1456   1.555       .  S
C831       C1476   1.556       .  S
C831        C988   1.554       .  S
O832       Cu840   1.974       .  S
O833       Cu840   2.013       .  S
O834       Cu840   2.025       .  S
O835       Cu840   2.003       .  S
O836       Cu841   1.984       .  S
O836        C845   1.275       .  A
O837       Cu841   2.025       .  S
O837        C844   1.279       .  A
O838       Cu841   2.032       .  S
O838        C843   1.281       .  A
O839       Cu841   2.008       .  S
O839        C842   1.279       .  A
C842        C991   1.465       .  S
C843        C914   1.480       .  S
C844        C915   1.481       .  S
C845        C981   1.466       .  S
O846       Cu854   1.998       .  S
O847       Cu854   2.025       .  S
O848       Cu854   2.031       .  S
O849       Cu854   2.003       .  S
O850       Cu855   1.991       .  S
O850        C859   1.276       .  A
O851       Cu855   2.024       .  S
O851        C858   1.279       .  A
O852       Cu855   2.027       .  S
O852        C857   1.280       .  A
O853       Cu855   2.004       .  S
O853        C856   1.278       .  A
C856        C951   1.476       .  S
C857        C913   1.481       .  S
C858        C916   1.482       .  S
C859        C941   1.478       .  S
O860       Cu868   2.026   1_554  S
O862       Cu868   2.020       .  S
O864        C873   1.280       .  A
O865       Cu869   2.020       .  S
O865        C872   1.280       .  A
O866        C871   1.278       .  A
O867       Cu869   2.018   1_554  S
O867        C870   1.278       .  A
Cu869     Cu1366   2.372       .  S
C870       O1358   1.280       .  A
C870        C885   1.478       .  S
C871       O1359   1.280       .  A
C871        C902   1.478       .  S
C872       O1360   1.278       .  A
C872        C899   1.476       .  S
C873       O1361   1.279       .  A
C873        C886   1.477       .  S
O874       Cu882   1.989       .  S
O875       Cu882   2.021       .  S
O876       Cu882   2.027       .  S
O877       Cu882   2.006       .  S
O878       Cu883   1.989       .  S
O878        C887   1.276       .  A
O879       Cu883   2.015       .  S
O879        C886   1.278       .  A
O880       Cu883   2.022       .  S
O880        C885   1.280       .  A
O881       Cu883   2.001       .  S
O881        C884   1.279       .  A
Cu883     Cu1380   2.372       .  S
C884       O1372   1.276       .  A
C884        C918   1.477       .  S
C885       O1373   1.278       .  A
C886       O1374   1.280       .  A
C887       O1375   1.279       .  A
C887        C928   1.474       .  S
C888        C931   1.574       .  S
C888        C938   1.550       .  S
C888       C1446   1.570       .  S
O889       Cu897   2.013       .  S
O889        C899   1.277       .  A
O890       Cu897   1.975       .  S
O890        C900   1.274       .  A
O891       Cu897   2.003       .  S
O891        C901   1.278       .  A
O892       Cu897   2.024       .  S
O892        C902   1.280       .  A
O893       Cu898   2.020       .  S
O894       Cu898   1.980       .  S
O895       Cu898   2.005       .  S
O896       Cu898   2.026       .  S
Cu897     Cu1396   2.374       .  S
C899       O1394   1.280       .  A
C900       O1393   1.278       .  A
C900        C971   1.465       .  S
C901       O1392   1.275       .  A
C901        C961   1.465       .  S
C902       O1391   1.278       .  A
O903       Cu911   2.026       .  S
O905       Cu911   2.022       .  S
O907        C916   1.281       .  A
O908       Cu912   2.031       .  S
O908        C915   1.281       .  A
O909        C914   1.279       .  A
O910       Cu912   2.026       .  S
O910        C913   1.279       .  A
Cu911      O1402   2.024       .  S
Cu911      O1404   2.024       .  S
Cu912      O1405   2.031       .  S
Cu912      O1407   2.025       .  S
C917        C918   1.400       .  A
C917        C922   1.394       .  A
C917        H924   1.083       .  S
C918       C1417   1.403       .  A
C919        C920   1.393       .  A
C919        F926   1.358       .  S
C920        H925   1.083       .  S
C921       C1418   1.415       .  A
C921        C922   1.425       .  A
C922        F923   1.356       .  S
C927        C932   1.401       .  A
C927        H934   1.084       .  S
C928       C1425   1.404       .  A
C928        C929   1.400       .  A
C929        C930   1.393       .  A
C929        F936   1.358       .  S
C930        C931   1.417       .  A
C930        H935   1.076       .  S
C931       C1430   1.414       .  A
C932        F933   1.354       .  S
C937        C942   1.394       .  A
C937        H944   1.078       .  S
C938        C939   1.419       .  A
C939        C940   1.394       .  A
C939       F1444   1.355       .  S
C940        C941   1.400       .  A
C940        H945   1.083       .  S
C942        F943   1.358       .  S
C947        C948   1.403       .  A
C947        C952   1.399       .  A
C947        H954   1.067       .  S
C949        C950   1.395       .  A
C950        H955   1.083       .  S
C951        C952   1.407       .  A
C952        F953   1.358       .  S
F956       C1447   1.355       .  S
C957       C1456   1.408       .  A
C957        C962   1.399       .  A
C957        H964   1.072       .  S
C958        C959   1.423       .  A
C959        C960   1.388       .  A
C959        F966   1.357       .  S
C960        H965   1.084       .  S
C961       C1458   1.393       .  A
C961        C962   1.406       .  A
C962        F963   1.358       .  S
C967        C972   1.400       .  A
C967        H974   1.072       .  S
C968       C1465   1.408       .  A
C968        C969   1.422       .  A
C969        C970   1.387       .  A
C970        C971   1.394       .  A
C970        H975   1.084       .  S
C971       C1470   1.406       .  A
C972        F973   1.358       .  S
C977        C982   1.399       .  A
C977        H984   1.071       .  S
C978        C979   1.424       .  A
C979        C980   1.389       .  A
C980        C981   1.393       .  A
C980        H985   1.084       .  S
C982        F983   1.358       .  S
F986       C1477   1.357       .  S
C987        C988   1.408       .  A
C987        C992   1.399       .  A
C987        H994   1.072       .  S
C989        C990   1.388       .  A
C989       F1494   1.357       .  S
C990        H995   1.084       .  S
C991        C992   1.406       .  A
C992        F993   1.358       .  S
C997       C1466   1.555       .  S
C997       C1154   1.554       .  S
O998      Cu1006   1.974       .  S
O998       C1174   1.274       .  A
O999      Cu1006   2.013       .  S
O999       C1175   1.277       .  A
O1000     Cu1006   2.025       .  S
O1000      C1176   1.280       .  A
O1001     Cu1006   2.003       .  S
O1001      C1177   1.278       .  A
O1002     Cu1007   1.984       .  S
O1002      C1011   1.275       .  A
O1003     Cu1007   2.025       .  S
O1003      C1010   1.279       .  A
O1004     Cu1007   2.032       .  S
O1004      C1009   1.281       .  A
O1005     Cu1007   2.008       .  S
O1005      C1008   1.279       .  A
Cu1006    Cu1173   2.373       .  S
Cu1007    Cu1338   2.373   1_545  S
C1008      O1330   1.274   1_545  A
C1008      C1157   1.465   1_545  S
C1009      O1331   1.277   1_545  A
C1009      C1080   1.480       .  S
C1010      O1332   1.280   1_545  A
C1010      C1081   1.481       .  S
C1011      O1333   1.278   1_545  A
C1011      C1147   1.466       .  S
O1012     Cu1020   1.998       .  S
O1012      C1188   1.277       .  A
O1013     Cu1020   2.025       .  S
O1013      C1189   1.279       .  A
O1014     Cu1020   2.031       .  S
O1014      C1190   1.281       .  A
O1015     Cu1020   2.003       .  S
O1015      C1191   1.278       .  A
O1016     Cu1021   1.991       .  S
O1016      C1025   1.276   1_545  A
O1017     Cu1021   2.024       .  S
O1017      C1024   1.279   1_545  A
O1018     Cu1021   2.027       .  S
O1018      C1023   1.280   1_545  A
O1019     Cu1021   2.004       .  S
O1019      C1022   1.278   1_545  A
Cu1020    Cu1187   2.371       .  S
Cu1021    Cu1352   2.371   1_545  S
C1022      O1344   1.277       .  A
C1022      C1117   1.476       .  S
C1023      O1345   1.279       .  A
C1023      C1079   1.481   1_565  S
C1024      O1346   1.281       .  A
C1024      C1082   1.482   1_565  S
C1025      O1347   1.278       .  A
C1025      C1107   1.478       .  S
O1026     Cu1034   2.026   1_554  S
O1027     Cu1200   2.026       .  S
O1028     Cu1034   2.020       .  S
O1029     Cu1200   2.021   1_554  S
O1030     Cu1201   2.020   1_554  S
O1030      C1039   1.280   1_655  A
O1031     Cu1035   2.020   1_545  S
O1031      C1038   1.280   1_655  A
O1032     Cu1201   2.018       .  S
O1032      C1037   1.278   1_655  A
O1033     Cu1035   2.018   1_544  S
O1033      C1036   1.278   1_655  A
Cu1034     O1359   2.026   1_545  S
Cu1034     O1361   2.021   1_546  S
Cu1035     O1362   2.020   1_556  S
Cu1035     O1364   2.018       .  S
C1036      C1051   1.478       .  S
C1037      C1068   1.478       .  S
C1038      C1065   1.476       .  S
C1039      C1052   1.477       .  S
O1040     Cu1048   1.989       .  S
O1041     Cu1048   2.021       .  S
O1042     Cu1048   2.027       .  S
O1043     Cu1048   2.006       .  S
O1044     Cu1049   1.990       .  S
O1044      C1053   1.276       .  A
O1045     Cu1049   2.015       .  S
O1045      C1052   1.278   1_655  A
O1046     Cu1049   2.022       .  S
O1046      C1051   1.280   1_655  A
O1047     Cu1049   2.001       .  S
O1047      C1050   1.279   1_655  A
C1050      C1084   1.477   1_455  S
C1053      C1094   1.474       .  S
C1054      C1419   1.554       .  S
C1054      C1097   1.574   1_565  S
C1054      C1104   1.550   1_565  S
O1055     Cu1063   2.013       .  S
O1055      C1065   1.277   1_655  A
O1056     Cu1063   1.975       .  S
O1056      C1066   1.274   1_655  A
O1057     Cu1063   2.003       .  S
O1057      C1067   1.278   1_655  A
O1058     Cu1063   2.024       .  S
O1058      C1068   1.280   1_655  A
O1059     Cu1064   2.019       .  S
O1060     Cu1064   1.980       .  S
O1061     Cu1064   2.005       .  S
O1062     Cu1064   2.026       .  S
C1066      C1137   1.465   1_455  S
C1067      C1127   1.465       .  S
O1069     Cu1077   2.026       .  S
O1069      C1245   1.280       .  A
O1070      C1246   1.280       .  A
O1071     Cu1077   2.022       .  S
O1071      C1247   1.279       .  A
O1072      C1248   1.279       .  A
O1073      C1082   1.281       .  A
O1074     Cu1078   2.031       .  S
O1074      C1081   1.281       .  A
O1075      C1080   1.279       .  A
O1076     Cu1078   2.026       .  S
O1076      C1079   1.279       .  A
Cu1077    Cu1244   2.371       .  S
Cu1078    Cu1409   2.371   1_545  S
C1079      O1401   1.280   1_545  A
C1080      O1402   1.280   1_545  A
C1081      O1403   1.279   1_545  A
C1082      O1404   1.279   1_545  A
C1083      C1084   1.400       .  A
C1083      C1088   1.394       .  A
C1083      H1090   1.083       .  S
C1085      C1086   1.393       .  A
C1085      F1092   1.358       .  S
C1086      H1091   1.083       .  S
C1087      C1220   1.554       .  S
C1087      C1088   1.425       .  A
C1088      F1089   1.356       .  S
C1093      C1098   1.401       .  A
C1093      H1100   1.084       .  S
C1094      C1095   1.400       .  A
C1095      C1096   1.393       .  A
C1095      F1102   1.358       .  S
C1096      C1097   1.417       .  A
C1096      H1101   1.076       .  S
C1098      F1099   1.354       .  S
C1103      C1270   1.415       .  A
C1103      C1108   1.394       .  A
C1103      H1110   1.078       .  S
C1104      C1435   1.415   1_545  A
C1104      C1105   1.419       .  A
C1105      C1106   1.394       .  A
C1106      C1107   1.400   1_545  A
C1106      H1111   1.083       .  S
C1107      C1440   1.403       .  A
C1108      C1273   1.403       .  A
C1108      F1109   1.358       .  S
C1113      C1114   1.403   1_545  A
C1113      C1118   1.399       .  A
C1113      H1120   1.067       .  S
C1114      C1447   1.423       .  A
C1115      C1280   1.423       .  A
C1115      C1116   1.395       .  A
C1116      C1283   1.398       .  A
C1116      H1121   1.083       .  S
C1117      C1448   1.398       .  A
C1117      C1118   1.407   1_565  A
C1118      F1119   1.358       .  S
C1123      C1128   1.399       .  A
C1123      H1130   1.072       .  S
C1124      C1125   1.423       .  A
C1125      C1126   1.388       .  A
C1125      F1132   1.357       .  S
C1126      H1131   1.084       .  S
C1127      C1128   1.406   1_455  A
C1128      F1129   1.358       .  S
C1133      C1138   1.400       .  A
C1133      H1140   1.072       .  S
C1134      C1163   1.555       .  S
C1134      C1135   1.422       .  A
C1135      C1136   1.387       .  A
C1135      F1308   1.357       .  S
C1136      C1137   1.394       .  A
C1136      H1141   1.084       .  S
C1138      F1139   1.358       .  S
F1142      C1467   1.357       .  S
C1143      C1310   1.407       .  A
C1143      C1148   1.399       .  A
C1143      H1150   1.071       .  S
C1144      C1475   1.407   1_545  A
C1144      C1145   1.424       .  A
C1145      C1146   1.389       .  A
C1146      C1147   1.393       .  A
C1146      H1151   1.084       .  S
C1147      C1480   1.406   1_545  A
C1148      C1313   1.406       .  A
C1148      F1149   1.358       .  S
C1153      C1154   1.408   1_545  A
C1153      C1158   1.399       .  A
C1153      H1160   1.072       .  S
C1154      C1487   1.422       .  A
C1155      C1320   1.422       .  A
C1155      C1156   1.388       .  A
C1156      C1323   1.394       .  A
C1156      H1161   1.084       .  S
C1157      C1488   1.394       .  A
C1157      C1158   1.406   1_565  A
C1158      F1159   1.358       .  S
C1163      C1320   1.554       .  S
O1164     Cu1172   1.974       .  S
O1164      C1340   1.274       .  A
O1165     Cu1172   2.013       .  S
O1165      C1341   1.277       .  A
O1166     Cu1172   2.025       .  S
O1166      C1342   1.280       .  A
O1167     Cu1172   2.003       .  S
O1167      C1343   1.278       .  A
O1168     Cu1173   1.984       .  S
O1168      C1177   1.275       .  A
O1169     Cu1173   2.025       .  S
O1169      C1176   1.279       .  A
O1170     Cu1173   2.032       .  S
O1170      C1175   1.281       .  A
O1171     Cu1173   2.008       .  S
O1171      C1174   1.279       .  A
Cu1172    Cu1339   2.373       .  S
C1174      C1323   1.465       .  S
C1175      C1246   1.480       .  S
C1176      C1247   1.481       .  S
C1177      C1313   1.466       .  S
O1178     Cu1186   1.999       .  S
O1178      C1354   1.277       .  A
O1179     Cu1186   2.025       .  S
O1179      C1355   1.279       .  A
O1180     Cu1186   2.031       .  S
O1180      C1356   1.281       .  A
O1181     Cu1186   2.003       .  S
O1181      C1357   1.278       .  A
O1182     Cu1187   1.991       .  S
O1182      C1191   1.276       .  A
O1183     Cu1187   2.024       .  S
O1183      C1190   1.279       .  A
O1184     Cu1187   2.027       .  S
O1184      C1189   1.280       .  A
O1185     Cu1187   2.004       .  S
O1185      C1188   1.278       .  A
Cu1186    Cu1353   2.371       .  S
C1188      C1283   1.476       .  S
C1189      C1245   1.481       .  S
C1190      C1248   1.482       .  S
C1191      C1273   1.478       .  S
O1192     Cu1200   2.026   1_554  S
O1193     Cu1366   2.026       .  S
O1194     Cu1200   2.020       .  S
O1195     Cu1366   2.021   1_554  S
O1196     Cu1367   2.020   1_554  S
O1196      C1205   1.280   1_655  A
O1197     Cu1201   2.020       .  S
O1197      C1204   1.280   1_655  A
O1198     Cu1367   2.018       .  S
O1198      C1203   1.278   1_655  A
O1199     Cu1201   2.018   1_554  S
O1199      C1202   1.278   1_655  A
C1202      C1217   1.478       .  S
C1203      C1234   1.478       .  S
C1204      C1231   1.476       .  S
C1205      C1218   1.477       .  S
O1206     Cu1214   1.989       .  S
O1207     Cu1214   2.021       .  S
O1208     Cu1214   2.027       .  S
O1209     Cu1214   2.006       .  S
O1210     Cu1215   1.989       .  S
O1210      C1219   1.276       .  A
O1211     Cu1215   2.015       .  S
O1211      C1218   1.278   1_655  A
O1212     Cu1215   2.022       .  S
O1212      C1217   1.280   1_655  A
O1213     Cu1215   2.001       .  S
O1213      C1216   1.279   1_655  A
C1216      C1250   1.477   1_455  S
C1219      C1260   1.474       .  S
C1220      C1263   1.574       .  S
C1220      C1270   1.550       .  S
O1221     Cu1229   2.012       .  S
O1221      C1231   1.277   1_655  A
O1222     Cu1229   1.975       .  S
O1222      C1232   1.274   1_655  A
O1223     Cu1229   2.003       .  S
O1223      C1233   1.278   1_655  A
O1224     Cu1229   2.024       .  S
O1224      C1234   1.280   1_655  A
O1225     Cu1230   2.020       .  S
O1226     Cu1230   1.980       .  S
O1227     Cu1230   2.005       .  S
O1228     Cu1230   2.026       .  S
C1232      C1303   1.465   1_455  S
C1233      C1293   1.465       .  S
O1235     Cu1243   2.026       .  S
O1235      C1411   1.280       .  A
O1236      C1412   1.280       .  A
O1237     Cu1243   2.022       .  S
O1237      C1413   1.279       .  A
O1238      C1414   1.279       .  A
O1239      C1248   1.281       .  A
O1240     Cu1244   2.031       .  S
O1240      C1247   1.281       .  A
O1241      C1246   1.279       .  A
O1242     Cu1244   2.026       .  S
O1242      C1245   1.279       .  A
Cu1243    Cu1410   2.371       .  S
C1249      C1250   1.400       .  A
C1249      C1254   1.394       .  A
C1249      H1256   1.083       .  S
C1251      C1252   1.393       .  A
C1251      F1258   1.358       .  S
C1252      H1257   1.083       .  S
C1253      C1386   1.554       .  S
C1253      C1254   1.425       .  A
C1254      F1255   1.356       .  S
C1259      C1264   1.401       .  A
C1259      H1266   1.084       .  S
C1260      C1261   1.400       .  A
C1261      C1262   1.393       .  A
C1261      F1268   1.358       .  S
C1262      C1263   1.417       .  A
C1262      H1267   1.076       .  S
C1264      F1265   1.354       .  S
C1269      C1436   1.415       .  A
C1269      C1274   1.394       .  A
C1269      H1276   1.078       .  S
C1270      C1271   1.419       .  A
C1271      C1272   1.394       .  A
C1272      C1273   1.400       .  A
C1272      H1277   1.083       .  S
C1274      C1439   1.403       .  A
C1274      F1275   1.358       .  S
C1279      C1280   1.403       .  A
C1279      C1284   1.399       .  A
C1279      H1286   1.067       .  S
C1281      C1446   1.423       .  A
C1281      C1282   1.395       .  A
C1282      C1449   1.398       .  A
C1282      H1287   1.083       .  S
C1283      C1284   1.407       .  A
C1284      F1285   1.358       .  S
C1289      C1294   1.399       .  A
C1289      H1296   1.072       .  S
C1290      C1291   1.423       .  A
C1291      C1292   1.388       .  A
C1291      F1298   1.357       .  S
C1292      H1297   1.084       .  S
C1293      C1294   1.406   1_455  A
C1294      F1295   1.358       .  S
C1299      C1304   1.400       .  A
C1299      H1306   1.072       .  S
C1300      C1329   1.555       .  S
C1300      C1301   1.422       .  A
C1301      C1302   1.387       .  A
C1301      F1474   1.357       .  S
C1302      C1303   1.394       .  A
C1302      H1307   1.084       .  S
C1304      F1305   1.358       .  S
C1309      C1476   1.407       .  A
C1309      C1314   1.399       .  A
C1309      H1316   1.071       .  S
C1310      C1311   1.424       .  A
C1311      C1312   1.389       .  A
C1312      C1313   1.393       .  A
C1312      H1317   1.084       .  S
C1314      C1479   1.406       .  A
C1314      F1315   1.358       .  S
C1319      C1320   1.408       .  A
C1319      C1324   1.399       .  A
C1319      H1326   1.072       .  S
C1321      C1486   1.422       .  A
C1321      C1322   1.388       .  A
C1322      C1489   1.394       .  A
C1322      H1327   1.084       .  S
C1323      C1324   1.406       .  A
C1324      F1325   1.358       .  S
C1329      C1486   1.554       .  S
O1330     Cu1338   1.974       .  S
O1331     Cu1338   2.013       .  S
O1332     Cu1338   2.025       .  S
O1333     Cu1338   2.003       .  S
O1334     Cu1339   1.984       .  S
O1334      C1343   1.275       .  A
O1335     Cu1339   2.025       .  S
O1335      C1342   1.279       .  A
O1336     Cu1339   2.032       .  S
O1336      C1341   1.281       .  A
O1337     Cu1339   2.008       .  S
O1337      C1340   1.279       .  A
C1340      C1489   1.465       .  S
C1341      C1412   1.480       .  S
C1342      C1413   1.481       .  S
C1343      C1479   1.466       .  S
O1344     Cu1352   1.998       .  S
O1345     Cu1352   2.025       .  S
O1346     Cu1352   2.031       .  S
O1347     Cu1352   2.003       .  S
O1348     Cu1353   1.991       .  S
O1348      C1357   1.276       .  A
O1349     Cu1353   2.024       .  S
O1349      C1356   1.279       .  A
O1350     Cu1353   2.027       .  S
O1350      C1355   1.280       .  A
O1351     Cu1353   2.004       .  S
O1351      C1354   1.278       .  A
C1354      C1449   1.476       .  S
C1355      C1411   1.481       .  S
C1356      C1414   1.482       .  S
C1357      C1439   1.478       .  S
O1358     Cu1366   2.026   1_554  S
O1360     Cu1366   2.020       .  S
O1362      C1371   1.280   1_655  A
O1363     Cu1367   2.020       .  S
O1363      C1370   1.280   1_655  A
O1364      C1369   1.278   1_655  A
O1365     Cu1367   2.018   1_554  S
O1365      C1368   1.278   1_655  A
C1368      C1383   1.478       .  S
C1369      C1400   1.478       .  S
C1370      C1397   1.476       .  S
C1371      C1384   1.477       .  S
O1372     Cu1380   1.989       .  S
O1373     Cu1380   2.021       .  S
O1374     Cu1380   2.027       .  S
O1375     Cu1380   2.006       .  S
O1376     Cu1381   1.989       .  S
O1376      C1385   1.276       .  A
O1377     Cu1381   2.015       .  S
O1377      C1384   1.278   1_655  A
O1378     Cu1381   2.022       .  S
O1378      C1383   1.280   1_655  A
O1379     Cu1381   2.001       .  S
O1379      C1382   1.279   1_655  A
C1382      C1416   1.477   1_455  S
C1385      C1426   1.474       .  S
C1386      C1429   1.574       .  S
C1386      C1436   1.550       .  S
O1387     Cu1395   2.013       .  S
O1387      C1397   1.277   1_655  A
O1388     Cu1395   1.975       .  S
O1388      C1398   1.274   1_655  A
O1389     Cu1395   2.003       .  S
O1389      C1399   1.278   1_655  A
O1390     Cu1395   2.024       .  S
O1390      C1400   1.280   1_655  A
O1391     Cu1396   2.020       .  S
O1392     Cu1396   1.980       .  S
O1393     Cu1396   2.005       .  S
O1394     Cu1396   2.026       .  S
C1398      C1469   1.465   1_455  S
C1399      C1459   1.465       .  S
O1401     Cu1409   2.026       .  S
O1403     Cu1409   2.022       .  S
O1405      C1414   1.281       .  A
O1406     Cu1410   2.031       .  S
O1406      C1413   1.281       .  A
O1407      C1412   1.279       .  A
O1408     Cu1410   2.026       .  S
O1408      C1411   1.279       .  A
C1415      C1416   1.400       .  A
C1415      C1420   1.394       .  A
C1415      H1422   1.083       .  S
C1417      C1418   1.393       .  A
C1417      F1424   1.358       .  S
C1418      H1423   1.083       .  S
C1419      C1420   1.425       .  A
C1420      F1421   1.356       .  S
C1425      C1430   1.401       .  A
C1425      H1432   1.084       .  S
C1426      C1427   1.400       .  A
C1427      C1428   1.393       .  A
C1427      F1434   1.358       .  S
C1428      C1429   1.417       .  A
C1428      H1433   1.076       .  S
C1430      F1431   1.354       .  S
C1435      C1440   1.394       .  A
C1435      H1442   1.078       .  S
C1436      C1437   1.419       .  A
C1437      C1438   1.394       .  A
C1438      C1439   1.400       .  A
C1438      H1443   1.083       .  S
C1440      F1441   1.358       .  S
C1445      C1446   1.403       .  A
C1445      C1450   1.399       .  A
C1445      H1452   1.067       .  S
C1447      C1448   1.395       .  A
C1448      H1453   1.083       .  S
C1449      C1450   1.407       .  A
C1450      F1451   1.358       .  S
C1455      C1460   1.399       .  A
C1455      H1462   1.072       .  S
C1456      C1457   1.423       .  A
C1457      C1458   1.388       .  A
C1457      F1464   1.357       .  S
C1458      H1463   1.084       .  S
C1459      C1460   1.406   1_455  A
C1460      F1461   1.358       .  S
C1465      C1470   1.400       .  A
C1465      H1472   1.072       .  S
C1466      C1467   1.422       .  A
C1467      C1468   1.387       .  A
C1468      C1469   1.394       .  A
C1468      H1473   1.084       .  S
C1470      F1471   1.358       .  S
C1475      C1480   1.399       .  A
C1475      H1482   1.071       .  S
C1476      C1477   1.424       .  A
C1477      C1478   1.389       .  A
C1478      C1479   1.393       .  A
C1478      H1483   1.084       .  S
C1480      F1481   1.358       .  S
C1485      C1486   1.408       .  A
C1485      C1490   1.399       .  A
C1485      H1492   1.072       .  S
C1487      C1488   1.388       .  A
C1488      H1493   1.084       .  S
C1489      C1490   1.406       .  A
C1490      F1491   1.358       .  S
