geometry optimzed in LAMMPS
_audit_creation_date              2020-11-30 
_audit_creation_method            'lammps2cif' 
_symmetry_space_group_name_H-M    'P1' 
_symmetry_Int_Tables_number       1 
_symmetry_cell_setting            triclinic 
loop_ 
_symmetry_equiv_pos_as_xyz 
  x,y,z 
_cell_length_a                    29.72505183 
_cell_length_b                    29.421423575610913 
_cell_length_c                    45.897979795129494 
_cell_angle_alpha                 90.64905563264509 
_cell_angle_beta                  89.65592320493982 
_cell_angle_gamma                 94.60551035716034 
loop_ 
_atom_site_label 
_atom_site_type_symbol 
_atom_site_fract_x 
_atom_site_fract_y 
_atom_site_fract_z 
_atom_site_charge 
N1          N  0.17089314  0.54739413  0.26953393    -0.03100
C2          C  0.15218302  0.05604488  0.24230177    -0.00500
C3          C  0.12235510  0.08901437  0.24706303    -0.23400
C4          C  0.11982300  0.09555204  0.27638715    -0.23600
C5          C  0.14826359  0.06648591  0.28873593    -0.00600
H6          H  0.10068100  0.10286211  0.23109915     0.13200
H7          H  0.09628967  0.11591646  0.28766280     0.13200
N8          N  0.21853284  0.54281276  0.27014219    -0.03100
C9          C  0.24455178  0.55633381  0.29367537    -0.00500
C10         C  0.28477874  0.57905035  0.28501998    -0.23400
C11         C  0.28554649  0.57749837  0.25535437    -0.23600
C12         C  0.24577936  0.55388213  0.24674825    -0.00600
H13         H  0.31336451  0.58941855  0.29875961     0.13200
H14         H  0.31474634  0.58658444  0.24177337     0.13200
N15         N  0.38586646  0.19939297  0.26530259    -0.03100
C16         C  0.35629062  0.19383193  0.24257271    -0.01500
C17         C  0.31281384  0.18591274  0.25331262    -0.23400
C18         C  0.31598905  0.18274629  0.28312371    -0.23600
C19         C  0.36130029  0.18875176  0.28990792    -0.00600
H20         H  0.28276342  0.17662922  0.24068013     0.13200
H21         H  0.28890925  0.17050988  0.29760585     0.13200
N22         N  0.43276126  0.21486518  0.26433480    -0.03100
C23         C  0.46040437  0.22190794  0.28777678    -0.00500
C24         C  0.50485944  0.22558224  0.27856539    -0.23400
C25         C  0.50427625  0.22588869  0.24863001    -0.23600
C26         C  0.45947288  0.22248718  0.24037117    -0.00600
H27         H  0.53402129  0.23568987  0.29183403     0.13200
H28         H  0.53297743  0.23611935  0.23490637     0.13200
O29         O  0.06316073  0.49716932  0.06506505    -0.74900
O30         O  0.50908055  0.47447712  0.09901541    -0.53800
C31         C  0.54940548  0.48877821  0.09147453     0.78800
O32         O  0.41814008  0.09378714  0.46962586    -0.59500
O33         O  0.42834629  0.03796518  0.43585370    -0.52500
C34         C  0.41984198  0.07878026  0.44296383     0.70800
O35         O  0.42818691  0.09292869  0.06964143    -0.74100
O36         O  0.43906054  0.03401791  0.10009220    -0.54600
C37         C  0.43271366  0.07584636  0.09526565     0.76800
O38         O  0.06084651  0.48563466  0.46503393    -0.59200
O39         O  0.50448801  0.47446008  0.43311342    -0.52300
C40         C  0.04444321  0.48196727  0.43906297     0.73400
Zr41       Zr  0.53221608  0.48300560  0.01548769     2.54700
O42         O  0.08810658  0.04522672  0.01132662    -0.79800
O43         O  0.09011562  0.42989171  0.01633644    -0.93200
Zr44       Zr  0.43358376  0.06378644  0.01865918     2.64700
O45         O  0.49708094  0.12130159  0.01759369    -0.98200
O46         O  0.38014369  0.12224682  0.01957533    -0.80200
O47         O  0.48494293  0.02189595  0.04468033    -0.83600
O48         O  0.48180387  0.02406191  0.48912788    -2.18300
O49         O  0.44705193  0.34099056  0.46522315    -0.67000
O50         O  0.43602238  0.39734933  0.43298129    -0.51500
C51         C  0.44243187  0.35576182  0.43918051     0.71800
O52         O  0.31399668  0.47019294  0.06884540    -0.59900
O53         O  0.37043701  0.46409930  0.10169895    -0.51800
C54         C  0.32956904  0.47070308  0.09498158     0.73600
O55         O  0.31582286  0.48294577  0.47213350    -0.71300
O56         O  0.36456957  0.46485079  0.43621216    -0.49900
C57         C  0.32716376  0.47917715  0.44509374     0.75000
O58         O  0.44494499  0.34025485  0.06428188    -0.66600
O59         O  0.43835969  0.39606188  0.09852916    -0.53800
C60         C  0.44199922  0.35434827  0.09087770     0.73400
Zr61       Zr  0.44192121  0.37388547  0.01574999     2.77500
O62         O  0.38279585  0.31179967  0.01260601    -0.97300
O63         O  0.49979826  0.31978543  0.01602555    -0.78200
Zr64       Zr  0.34212793  0.45680949  0.01941928     2.70100
O65         O  0.30157678  0.38202384  0.01373120    -0.79400
O66         O  0.26451513  0.97376531  0.02287362    -0.98500
Zr67       Zr  0.43885216  0.46702539  0.07239015     2.21500
Zr68       Zr  0.43562779  0.46740185  0.46169117     2.11100
O69         O  0.39028068  0.41189236  0.48849274    -2.47200
O70         O  0.39151198  0.41280534  0.04578334    -0.79200
O71         O  0.48779029  0.42586124  0.48741238    -0.71400
O72         O  0.38896306  0.00940325  0.04610374    -2.32400
O73         O  0.48946342  0.42676855  0.04337061    -2.28600
O74         O  0.38607947  0.01110205  0.49178127    -0.73200
H75         H  0.49829114  0.04500157  0.47611047     0.78800
H76         H  0.37115325  0.02696982  0.05900554     0.79900
H77         H  0.37243301  0.39186177  0.47548939     0.82100
H78         H  0.50937674  0.41073092  0.05543953     0.79800
H79         H  0.35148942  0.10631243  0.01268675     0.42800
H80         H  0.26532612  0.00676929  0.01872109     0.41800
H81         H  0.29973257  0.36957063  0.03369118     0.41400
H82         H  0.37090658  0.31315703  0.99257239     0.39400
H83         H  0.52801602  0.33845724  0.02082721     0.42500
H84         H  0.11889804  0.44928996  0.01655959     0.37300
H85         H  0.07234370  0.06918123  0.00156581     0.43400
H86         H  0.48044957  0.15201276  0.52707408     0.39800
H87         H  0.39920254  0.28379313  0.01268139     0.44700
H88         H  0.08895931  0.41564307  0.99666952     0.43500
H89         H  0.52083654  0.10812320  0.02910449     0.43600
H90         H  0.24860369  0.95858660  0.00605782     0.44000
C91         C  0.44560232  0.32283621  0.41459541    -0.04900
C92         C  0.47070799  0.28454847  0.41738865    -0.04800
C93         C  0.47727088  0.25581959  0.39345145    -0.22900
C94         C  0.45840564  0.26450605  0.36633304     0.19300
C95         C  0.43133290  0.30162508  0.36366336     0.16500
C96         C  0.42525925  0.33055182  0.38770301    -0.18000
C97         C  0.41174040  0.30998819  0.33675832    -0.19800
C98         C  0.41975904  0.28261674  0.31253157    -0.12400
C99         C  0.44763134  0.24643631  0.31465349     0.04300
C100        C  0.46689362  0.23746426  0.34169758    -0.24500
H101        H  0.48661389  0.27767633  0.43786767     0.09400
H102        H  0.49773228  0.22727885  0.39602977     0.13000
H103        H  0.40521037  0.35948289  0.38535672     0.12900
H104        H  0.39092127  0.33827716  0.33429946     0.12700
H105        H  0.40533464  0.29070399  0.29180606     0.13200
H106        H  0.48863859  0.20975443  0.34341224     0.15200
C107        C  0.44391872  0.32077556  0.11457455    -0.04900
C108        C  0.46973418  0.28302958  0.11137113    -0.04800
C109        C  0.47637045  0.25482512  0.13507717    -0.22900
C110        C  0.45686956  0.26363253  0.16227307     0.19300
C111        C  0.42852366  0.29976603  0.16519440     0.16500
C112        C  0.42242434  0.32817578  0.14141362    -0.18000
C113        C  0.40807464  0.30794648  0.19215446    -0.19800
C114        C  0.41689630  0.28163795  0.21629644    -0.12400
C115        C  0.44621224  0.24662261  0.21391483     0.04300
C116        C  0.46618276  0.23783655  0.18677780    -0.24500
H117        H  0.48644066  0.27652191  0.09088436     0.09400
H118        H  0.49763304  0.22682588  0.13233173     0.13000
H119        H  0.40179882  0.35674720  0.14398449     0.12900
H120        H  0.38607133  0.33536209  0.19473669     0.12700
H121        H  0.40174706  0.28945975  0.23707125     0.13200
H122        H  0.48912108  0.21109413  0.18487757     0.15200
C123        C  0.37906972  0.16726778  0.31628427    -0.04900
C124        C  0.40763520  0.13179778  0.31287756    -0.04800
C125        C  0.42286468  0.10923312  0.33711320    -0.22900
C126        C  0.40987260  0.12167919  0.36535685     0.19300
C127        C  0.38152486  0.15758260  0.36924701     0.16500
C128        C  0.36559494  0.17969798  0.34460837    -0.18000
C129        C  0.36934356  0.17020408  0.39769873    -0.19800
C130        C  0.38356118  0.14630328  0.42191903    -0.12400
C131        C  0.41008412  0.10912643  0.41818384     0.04300
C132        C  0.42389328  0.09791110  0.38967760    -0.24500
H133        H  0.41760566  0.12105806  0.29128908     0.09400
H134        H  0.44448136  0.08167144  0.33373271     0.13000
H135        H  0.34327377  0.20680897  0.34738615     0.12900
H136        H  0.34805000  0.19798957  0.40119195     0.12700
H137        H  0.37228600  0.15575585  0.44346203     0.13200
H138        H  0.44478738  0.06974534  0.38627219     0.15200
C139        C  0.42996591  0.10424740  0.12203616    -0.04900
C140        C  0.45669126  0.09370691  0.14586270    -0.04800
C141        C  0.44764891  0.10952943  0.17379494    -0.22900
C142        C  0.41198545  0.13687988  0.17858594     0.19300
C143        C  0.38711427  0.15123776  0.15463962     0.16500
C144        C  0.39612926  0.13463283  0.12630761    -0.18000
C145        C  0.35266496  0.18039702  0.15982839    -0.19800
C146        C  0.34305936  0.19481541  0.18832431    -0.12400
C147        C  0.36743657  0.18008997  0.21217898     0.04300
C148        C  0.40081515  0.14980215  0.20707719    -0.24500
H149        H  0.48328116  0.07085589  0.14310570     0.09400
H150        H  0.46781410  0.09926369  0.19180475     0.13000
H151        H  0.37516248  0.14287221  0.10817807     0.12900
H152        H  0.33310989  0.19193880  0.14190829     0.12700
H153        H  0.31657430  0.21753595  0.19179161     0.13200
H154        H  0.41874315  0.13694612  0.22535104     0.15200
C155        C  0.24321566  0.53310543  0.32209676    -0.04900
C156        C  0.24366866  0.48549008  0.32290090    -0.04800
C157        C  0.25575786  0.46403537  0.34843491    -0.22900
C158        C  0.26689278  0.48991212  0.37363140     0.19300
C159        C  0.26241044  0.53740667  0.37371089     0.16500
C160        C  0.24629591  0.05401700  0.34878810    -0.18000
C161        C  0.27041447  0.06118970  0.39932799    -0.19800
C162        C  0.28923579  0.04183024  0.42357598    -0.12400
C163        C  0.29783140  0.49645757  0.42272040     0.04300
C164        C  0.28529757  0.46980985  0.39804109    -0.24500
H165        H  0.23805431  0.46529381  0.30318739     0.09400
H166        H  0.25848440  0.42753363  0.34806793     0.13000
H167        H  0.24801768  0.09086838  0.34714265     0.12900
H168        H  0.26809099  0.09775127  0.39896640     0.12700
H169        H  0.30154992  0.06384816  0.44137727     0.13200
H170        H  0.29199679  0.43412313  0.39733815     0.15200
C171        C  0.24549161  0.52839738  0.21886225    -0.04900
C172        C  0.24829778  0.48099212  0.21885255    -0.04800
C173        C  0.26163726  0.45832220  0.19361970    -0.22900
C174        C  0.27144607  0.48270720  0.16793581     0.19300
C175        C  0.26450894  0.52972016  0.16720623     0.16500
C176        C  0.25274001  0.55239902  0.19280928    -0.18000
C177        C  0.27229938  0.55394140  0.14135516    -0.19800
C178        C  0.28986078  0.53264943  0.11701814    -0.12400
C179        C  0.30085184  0.48721895  0.11832884     0.04300
C180        C  0.29061115  0.46184189  0.14357565    -0.24500
H181        H  0.24358728  0.46215270  0.23892574     0.09400
H182        H  0.26619672  0.42220256  0.19455161     0.13000
H183        H  0.25108952  0.58909662  0.19287444     0.12900
H184        H  0.26658199  0.58980527  0.14032276     0.12700
H185        H  0.29793252  0.55268773  0.09773613     0.13200
H186        H  0.29918047  0.42677067  0.14460978     0.15200
C187        C  0.14724389  0.55530428  0.32273959    -0.04900
C188        C  0.14523648  0.09114436  0.34071648    -0.04800
C189        C  0.13219986  0.08294486  0.36960427    -0.22900
C190        C  0.11921781  0.53670045  0.38052665     0.19300
C191        C  0.11816494  0.50112140  0.35943712     0.16500
C192        C  0.13331118  0.51045213  0.33084142    -0.18000
C193        C  0.09809836  0.45785610  0.36655940    -0.19800
C194        C  0.07609449  0.45093092  0.39336208    -0.12400
C195        C  0.07562174  0.48648683  0.41398036     0.04300
C196        C  0.09905237  0.52872453  0.40801945    -0.24500
H197        H  0.15547165  0.12573222  0.33420539     0.09400
H198        H  0.13295492  0.11131811  0.38489424     0.13000
H199        H  0.13021634  0.48384391  0.31426760     0.12900
H200        H  0.09683134  0.43021927  0.35070640     0.12700
H201        H  0.56258751  0.41782103  0.39840681     0.13200
H202        H  0.09593288  0.06016640  0.42140522     0.15200
C203        C  0.08260946  0.50294286  0.11541132    -0.04900
C204        C  0.11139779  0.03973632  0.11215557    -0.04800
C205        C  0.13588173  0.05658273  0.13640665    -0.22900
C206        C  0.13372325  0.03238916  0.16258061     0.19300
C207        C  0.10882443  0.49263015  0.16523407     0.16500
C208        C  0.08403980  0.47616320  0.14063892    -0.18000
C209        C  0.10908597  0.46716814  0.19096835    -0.19800
C210        C  0.12764548  0.48691037  0.21662129    -0.12400
C211        C  0.14566566  0.53248295  0.21698823     0.04300
C212        C  0.15215765  0.05239239  0.18819166    -0.24500
H213        H  0.61302526  0.05992238  0.09258886     0.09400
H214        H  0.15485047  0.08952910  0.13508583     0.13000
H215        H  0.06437541  0.44353803  0.14152519     0.12900
H216        H  0.09266699  0.43296655  0.19169092     0.12700
H217        H  0.12420356  0.46801009  0.23673779     0.13200
H218        H  0.16683195  0.08734877  0.18791836     0.15200
N219        N  0.17196293  0.54433835  0.76882593    -0.03100
C220        C  0.14982842  0.05997913  0.74383281    -0.00500
C221        C  0.11726557  0.08961445  0.75011314    -0.23400
C222        C  0.11597503  0.09453286  0.77963611    -0.23600
C223        C  0.14789307  0.06792380  0.79060378    -0.00600
H224        H  0.09324556  0.10193886  0.73504523     0.13200
H225        H  0.09118167  0.11186101  0.79197667     0.13200
N226        N  0.21912759  0.53754888  0.77039068    -0.03100
C227        C  0.24465092  0.55050749  0.79425221    -0.00500
C228        C  0.28603190  0.57142434  0.78625624    -0.23400
C229        C  0.28809881  0.56931367  0.75667373    -0.23600
C230        C  0.24790195  0.54717511  0.74751720    -0.00600
H231        H  0.31405488  0.58149092  0.80051827     0.13200
H232        H  0.31794157  0.57764979  0.74352670     0.13200
N233        N  0.40139588  0.20670786  0.76643526    -0.03100
C234        C  0.37112232  0.20222212  0.74407250    -0.01500
C235        C  0.32787378  0.19474476  0.75523795    -0.23400
C236        C  0.33171621  0.19100744  0.78494014    -0.23600
C237        C  0.37722142  0.19619589  0.79121960    -0.00600
H238        H  0.29743259  0.18605090  0.74287604     0.13200
H239        H  0.30481064  0.17915562  0.79966266     0.13200
N240        N  0.44840739  0.22167532  0.76502255    -0.03100
C241        C  0.47584416  0.23169743  0.78822136    -0.00500
C242        C  0.52034421  0.23550605  0.77918610    -0.23400
C243        C  0.51992397  0.23239415  0.74927652    -0.23600
C244        C  0.47514563  0.22722072  0.74088053    -0.00600
H245        H  0.54926683  0.24728909  0.79223645     0.13200
H246        H  0.54852724  0.24195875  0.73531127     0.13200
O247        O  0.06231757  0.49374600  0.56468060    -0.74900
O248        O  0.50839071  0.47366256  0.59910258    -0.53800
C249        C  0.54905080  0.48675718  0.59158852     0.78800
O250        O  0.42082506  0.09368806  0.96962810    -0.59500
O251        O  0.42961730  0.03813937  0.93539686    -0.52500
C252        C  0.42254589  0.07916228  0.94298682     0.70800
O253        O  0.43080753  0.09332509  0.57091226    -0.74100
O254        O  0.43937761  0.03353373  0.60110894    -0.54600
C255        C  0.43474513  0.07573274  0.59652397     0.76800
O256        O  0.06191714  0.49058563  0.96546010    -0.59200
O257        O  0.50213964  0.47709726  0.93322958    -0.52300
C258        C  0.04536669  0.48574024  0.93955603     0.73400
Zr259      Zr  0.53247740  0.48109828  0.51536153     2.54700
O260        O  0.09198062  0.04618013  0.51227923    -0.79800
O261        O  0.09048954  0.42859270  0.51708739    -0.93200
Zr262      Zr  0.43295069  0.06483487  0.51924948     2.64700
O263        O  0.49241539  0.12649016  0.51603030    -0.98200
O264        O  0.37649148  0.11997008  0.52411690    -0.80200
O265        O  0.48429913  0.02229851  0.54515177    -0.83600
O266        O  0.48207251  0.02343190  0.98817645    -2.18300
O267        O  0.45119426  0.34552526  0.96598528    -0.67000
O268        O  0.43695704  0.40116890  0.93392403    -0.51500
C269        C  0.44617607  0.36036982  0.94000334     0.71800
O270        O  0.31499771  0.46788336  0.56837977    -0.59900
O271        O  0.37105944  0.45979309  0.60121241    -0.51800
C272        C  0.33048579  0.46749751  0.59457732     0.73600
O273        O  0.31374460  0.48354508  0.97306560    -0.71300
O274        O  0.36343343  0.46842128  0.93702883    -0.49900
C275        C  0.32530149  0.48086257  0.94607245     0.75000
O276        O  0.44885444  0.33751400  0.56320063    -0.66600
O277        O  0.44090060  0.39321587  0.59729162    -0.53800
C278        C  0.44623679  0.35180104  0.58976675     0.73400
Zr279      Zr  0.44252007  0.37122925  0.51491442     2.77500
O280        O  0.38360544  0.30879845  0.51360546    -0.97300
O281        O  0.50091470  0.31787617  0.51286006    -0.78200
Zr282      Zr  0.34247992  0.45370894  0.51854453     2.70100
O283        O  0.30389647  0.37803679  0.51291536    -0.79400
O284        O  0.26590382  0.97765391  0.52504709    -0.98500
Zr285      Zr  0.43894008  0.46407818  0.57164405     2.21500
Zr286      Zr  0.43444593  0.47037331  0.96278692     2.11100
O287        O  0.38940521  0.41443053  0.98936210    -2.47200
O288        O  0.39180831  0.40975085  0.54499899    -0.79200
O289        O  0.48672045  0.42836640  0.98793865    -0.71400
O290        O  0.38915526  0.00985047  0.54675678    -2.32400
O291        O  0.48981857  0.42425357  0.54269306    -2.28600
O292        O  0.38667888  0.01017690  0.99121249    -0.73200
H293        H  0.49844770  0.04445355  0.97516471     0.78800
H294        H  0.37139053  0.02728649  0.55976573     0.79900
H295        H  0.37159985  0.39442927  0.97631336     0.82100
H296        H  0.50985133  0.40839046  0.55476603     0.79800
H297        H  0.34773511  0.10115360  0.52718780     0.42800
H298        H  0.26728352  0.00986191  0.51887486     0.41800
H299        H  0.30920647  0.36265679  0.53151390     0.41400
H300        H  0.36849655  0.31161446  0.49463856     0.39400
H301        H  0.52827780  0.33553176  0.52031837     0.42500
H302        H  0.11787020  0.44654223  0.50998733     0.37300
H303        H  0.07808976  0.07029763  0.50140447     0.43400
H304        H  0.48728338  0.14648594  0.02995554     0.39800
H305        H  0.40018079  0.28105034  0.51140402     0.44700
H306        H  0.08285321  0.40611973  0.50129558     0.43500
H307        H  0.51692222  0.11661059  0.52840363     0.43600
H308        H  0.24820708  0.96050291  0.50969806     0.44000
C309        C  0.45248024  0.32871619  0.91529258    -0.04900
C310        C  0.48160688  0.29360236  0.91780023    -0.04800
C311        C  0.49104632  0.26647084  0.89364824    -0.22900
C312        C  0.47105719  0.27361198  0.86666871     0.19300
C313        C  0.44002226  0.30738487  0.86431827     0.16500
C314        C  0.43121154  0.33487682  0.88852853    -0.18000
C315        C  0.41915016  0.31391797  0.83758463    -0.19800
C316        C  0.43000076  0.28829832  0.81314750    -0.12400
C317        C  0.46175556  0.25554890  0.81499105     0.04300
C318        C  0.48214847  0.24824548  0.84188613    -0.24500
H319        H  0.49835121  0.28815399  0.93821187     0.09400
H320        H  0.51453512  0.24043562  0.89595401     0.13000
H321        H  0.40821233  0.36144933  0.88644837     0.12900
H322        H  0.39508603  0.33944550  0.83543382     0.12700
H323        H  0.41431042  0.29486091  0.79256149     0.13200
H324        H  0.50664304  0.22299814  0.84340301     0.15200
C325        C  0.45086597  0.31928255  0.61375731    -0.04900
C326        C  0.47644958  0.28138253  0.61030581    -0.04800
C327        C  0.48562493  0.25466007  0.63434658    -0.22900
C328        C  0.46898497  0.26521784  0.66211912     0.19300
C329        C  0.44152349  0.30202163  0.66537744     0.16500
C330        C  0.43270572  0.32862776  0.64130737    -0.18000
C331        C  0.42421856  0.31257965  0.69284216    -0.19800
C332        C  0.43443934  0.28733353  0.71706656    -0.12400
C333        C  0.46189448  0.25084888  0.71430644     0.04300
C334        C  0.47965090  0.24022354  0.68676962    -0.24500
H335        H  0.49085560  0.27352830  0.58929116     0.09400
H336        H  0.50636385  0.22630739  0.63132592     0.13000
H337        H  0.41244210  0.35741912  0.64419376     0.12900
H338        H  0.40323006  0.34077978  0.69566915     0.12700
H339        H  0.42139559  0.29678416  0.73815702     0.13200
H340        H  0.50144442  0.21253074  0.68462821     0.15200
C341        C  0.39521586  0.17593997  0.81793270    -0.04900
C342        C  0.42767435  0.14395067  0.81535349    -0.04800
C343        C  0.44194672  0.12136756  0.83982035    -0.22900
C344        C  0.42348576  0.12975424  0.86735034     0.19300
C345        C  0.39171175  0.16272883  0.87051344     0.16500
C346        C  0.37748944  0.18542220  0.84571334    -0.18000
C347        C  0.37383001  0.17126920  0.89828379    -0.19800
C348        C  0.38556754  0.14574511  0.92233688    -0.12400
C349        C  0.41514500  0.11107915  0.91897292     0.04300
C350        C  0.43492091  0.10426154  0.89149717    -0.24500
H351        H  0.44120538  0.13555795  0.79418068     0.09400
H352        H  0.46649848  0.09633402  0.83706102     0.13000
H353        H  0.35232587  0.20996157  0.84788022     0.12900
H354        H  0.34979161  0.19675149  0.90124058     0.12700
H355        H  0.36991877  0.15167291  0.94326183     0.13200
H356        H  0.45829442  0.07805683  0.88870664     0.15200
C357        C  0.43373806  0.10372433  0.62372304    -0.04900
C358        C  0.45774831  0.08918361  0.64785804    -0.04800
C359        C  0.45032461  0.10589350  0.67578047    -0.22900
C360        C  0.41934251  0.13845001  0.68037889     0.19300
C361        C  0.39704205  0.15609284  0.65630746     0.16500
C362        C  0.40430215  0.13852796  0.62792634    -0.18000
C363        C  0.36691767  0.18981756  0.66139331    -0.19800
C364        C  0.35888673  0.20534381  0.68987341    -0.12400
C365        C  0.38102007  0.18768584  0.71374488     0.04300
C366        C  0.41041179  0.15345403  0.70880102    -0.24500
H367        H  0.48108293  0.06291973  0.64532388     0.09400
H368        H  0.46827003  0.09261405  0.69389835     0.13000
H369        H  0.38539965  0.14995640  0.60965780     0.12900
H370        H  0.34945932  0.20402760  0.64341034     0.12700
H371        H  0.33555004  0.23134691  0.69331874     0.13200
H372        H  0.42662516  0.13875535  0.72716699     0.15200
C373        C  0.24007924  0.52973971  0.82336745    -0.04900
C374        C  0.23542685  0.48212980  0.82603182    -0.04800
C375        C  0.24491117  0.46185499  0.85252802    -0.22900
C376        C  0.25939084  0.48906217  0.87656108     0.19300
C377        C  0.25945211  0.53704075  0.87476912     0.16500
C378        C  0.24996842  0.05825731  0.84791186    -0.18000
C379        C  0.27360371  0.06482465  0.89859418    -0.19800
C380        C  0.29145954  0.04496411  0.92302214    -0.12400
C381        C  0.29518904  0.49786286  0.92412401     0.04300
C382        C  0.27771119  0.46966530  0.90128203    -0.24500
H383        H  0.22788306  0.46066180  0.80707790     0.09400
H384        H  0.24383760  0.42502323  0.85363617     0.13000
H385        H  0.25231560  0.09512713  0.84631879     0.12900
H386        H  0.27208685  0.10149506  0.89821275     0.12700
H387        H  0.30393458  0.06672189  0.94090479     0.13200
H388        H  0.28116601  0.43328555  0.90192365     0.15200
C389        C  0.24670181  0.52329335  0.71907918    -0.04900
C390        C  0.24548346  0.47550041  0.71776740    -0.04800
C391        C  0.25794315  0.45337951  0.69207577    -0.22900
C392        C  0.27101892  0.47883708  0.66727676     0.19300
C393        C  0.26828720  0.52665163  0.66789814     0.16500
C394        C  0.25718837  0.54854015  0.69389485    -0.18000
C395        C  0.27942256  0.55226533  0.64301969    -0.19800
C396        C  0.29596317  0.53126515  0.61827909    -0.12400
C397        C  0.30254912  0.48459070  0.61817295     0.04300
C398        C  0.28920709  0.45806946  0.64249565    -0.24500
H399        H  0.23821236  0.45562135  0.73719869     0.09400
H400        H  0.25922099  0.41668007  0.69199071     0.13000
H401        H  0.25865855  0.58548434  0.69499812     0.12900
H402        H  0.27706040  0.58883584  0.64308248     0.12700
H403        H  0.30663178  0.55218051  0.59981381     0.13200
H404        H  0.29457133  0.42205712  0.64251120     0.15200
C405        C  0.14677267  0.55592055  0.82147161    -0.04900
C406        C  0.14938895  0.08891759  0.84324921    -0.04800
C407        C  0.13706732  0.07911511  0.87207239    -0.22900
C408        C  0.11896251  0.53930929  0.87960639     0.19300
C409        C  0.11738964  0.50312580  0.85892542     0.16500
C410        C  0.13199202  0.51152231  0.83008972    -0.18000
C411        C  0.09776068  0.46005051  0.86679649    -0.19800
C412        C  0.07655285  0.45385414  0.89392415    -0.12400
C413        C  0.07618499  0.49002930  0.91412919     0.04300
C414        C  0.09928384  0.53219631  0.90738485    -0.24500
H415        H  0.16075521  0.12360945  0.83757771     0.09400
H416        H  0.13959920  0.10636471  0.88819859     0.13000
H417        H  0.12866886  0.48439787  0.81386685     0.12900
H418        H  0.09632688  0.43188868  0.85132276     0.12700
H419        H  0.55785993  0.42059895  0.89743248     0.13200
H420        H  0.09938650  0.05472894  0.92318529     0.15200
C421        C  0.08093505  0.49958195  0.61520748    -0.04900
C422        C  0.11371079  0.04382949  0.61257886    -0.04800
C423        C  0.13727298  0.06086570  0.63719957    -0.22900
C424        C  0.13353070  0.03719188  0.66357746     0.19300
C425        C  0.10486192  0.49027811  0.66565514     0.16500
C426        C  0.07919688  0.47451251  0.64127402    -0.18000
C427        C  0.10243334  0.46641110  0.69206714    -0.19800
C428        C  0.12321894  0.48564002  0.71720551    -0.12400
C429        C  0.14622946  0.52919320  0.71639656     0.04300
C430        C  0.15075749  0.05739007  0.68952059    -0.24500
H431        H  0.61388098  0.06200631  0.59235171     0.09400
H432        H  0.15672612  0.09355641  0.63597013     0.13000
H433        H  0.05676635  0.44369981  0.64285388     0.12900
H434        H  0.08252864  0.43402358  0.69365276     0.12700
H435        H  0.11786597  0.46836020  0.73780177     0.13200
H436        H  0.16543594  0.09234260  0.68945759     0.15200
N437        N  0.17070273  0.04310832  0.26792320    -0.03100
C438        C  0.14823820  0.55818161  0.24491771    -0.00500
C439        C  0.11444979  0.58624558  0.25144090    -0.23400
C440        C  0.11438610  0.59222197  0.28088647    -0.23600
C441        C  0.14819090  0.56771258  0.29159688    -0.00600
H442        H  0.08923866  0.59701964  0.23664049     0.13200
H443        H  0.08928008  0.60874067  0.29345331     0.13200
N444        N  0.21745169  0.03505431  0.27056749    -0.03100
C445        C  0.24199952  0.04840802  0.29480160    -0.00500
C446        C  0.28390290  0.06867701  0.28733407    -0.23400
C447        C  0.28739964  0.06553599  0.25785858    -0.23600
C448        C  0.24745641  0.04366348  0.24818166    -0.00600
H449        H  0.31142938  0.07862574  0.30201172     0.13200
H450        H  0.31788552  0.07314906  0.24520451     0.13200
N451        N  0.40057133  0.70936113  0.26662676    -0.03100
C452        C  0.37100280  0.70496151  0.24387602    -0.01500
C453        C  0.32735383  0.69854663  0.25453805    -0.23400
C454        C  0.33021215  0.69521738  0.28433723    -0.23600
C455        C  0.37553455  0.69954255  0.29121856    -0.00600
H456        H  0.29718566  0.69016666  0.24184285     0.13200
H457        H  0.30272015  0.68371501  0.29871398     0.13200
N458        N  0.44794221  0.72284096  0.26562780    -0.03100
C459        C  0.47531756  0.73070209  0.28907625    -0.00500
C460        C  0.51986611  0.73518801  0.28013335    -0.23400
C461        C  0.51956846  0.73502129  0.25019367    -0.23600
C462        C  0.47483454  0.73060641  0.24175090    -0.00600
H463        H  0.54868489  0.74608863  0.29351880     0.13200
H464        H  0.54820371  0.74578881  0.23654561     0.13200
O465        O  0.06394660  0.99304083  0.06362078    -0.74900
O466        O  0.51107703  0.97387630  0.09779922    -0.53800
C467        C  0.55171337  0.98691200  0.09006680     0.78800
O468        O  0.41943657  0.59242590  0.46933315    -0.59500
O469        O  0.43020155  0.53725892  0.43515419    -0.52500
C470        C  0.42186140  0.57804085  0.44260052     0.70800
O471        O  0.43211494  0.59482252  0.07130137    -0.74100
O472        O  0.43981542  0.53495593  0.10163237    -0.54600
C473        C  0.43597834  0.57734612  0.09694204     0.76800
O474        O  0.06266035  0.98939273  0.46492279    -0.59200
O475        O  0.50257631  0.97682203  0.43316497    -0.52300
C476        C  0.04562078  0.98472844  0.43914392     0.73400
Zr477      Zr  0.53306359  0.98117916  0.01427491     2.54700
O478        O  0.08991080  0.54741373  0.01437891    -0.79800
O479        O  0.09039295  0.92700390  0.01588400    -0.93200
Zr480      Zr  0.43247674  0.56624896  0.01968802     2.64700
O481        O  0.49284438  0.62695142  0.01595182    -0.98200
O482        O  0.37724425  0.62266142  0.02502396    -0.80200
O483        O  0.48348238  0.52353106  0.04560804    -0.83600
O484        O  0.48156306  0.52296156  0.48888323    -2.18300
O485        O  0.44860817  0.84257303  0.46692720    -0.67000
O486        O  0.43704226  0.89870603  0.43454647    -0.51500
C487        C  0.44441976  0.85746701  0.44089177     0.71800
O488        O  0.31535022  0.96795980  0.06850044    -0.59900
O489        O  0.37230067  0.96151061  0.10098197    -0.51800
C490        C  0.33133770  0.96810196  0.09456161     0.73600
O491        O  0.31460252  0.98136742  0.47265750    -0.71300
O492        O  0.36417262  0.96580784  0.43664818    -0.49900
C493        C  0.32617839  0.97851101  0.44566930     0.75000
O494        O  0.44789101  0.83970585  0.06404216    -0.66600
O495        O  0.44116487  0.89597369  0.09794722    -0.53800
C496        C  0.44555137  0.85436504  0.09057819     0.73400
Zr497      Zr  0.44239515  0.87215396  0.01517200     2.77500
O498        O  0.38325533  0.80988804  0.01487787    -0.97300
O499        O  0.50171840  0.81974454  0.01308984    -0.78200
Zr500      Zr  0.34276269  0.95506294  0.01866369     2.70100
O501        O  0.30354188  0.87948588  0.01357978    -0.79400
O502        O  0.26347744  0.47356509  0.02447166    -0.98500
Zr503      Zr  0.44029336  0.96579452  0.07141506     2.21500
Zr504      Zr  0.43479341  0.96871072  0.46257764     2.11100
O505        O  0.38986289  0.91297151  0.48954048    -2.47200
O506        O  0.39245447  0.91156667  0.04516268    -0.79200
O507        O  0.48651016  0.92636931  0.48795376    -0.71400
O508        O  0.38809166  0.51135822  0.04703050    -2.32400
O509        O  0.49043776  0.92514306  0.04236140    -2.28600
O510        O  0.38628693  0.50904317  0.49103161    -0.73200
H511        H  0.49813687  0.54411933  0.47604133     0.78800
H512        H  0.37057024  0.52903322  0.06005747     0.79900
H513        H  0.37189519  0.89271762  0.47669770     0.82100
H514        H  0.51049850  0.90918498  0.05435927     0.79800
H515        H  0.34806364  0.60443599  0.02775141     0.42800
H516        H  0.26330964  0.50637277  0.01997375     0.41800
H517        H  0.29921675  0.86869798  0.03383903     0.41400
H518        H  0.36825726  0.81189473  0.99580486     0.39400
H519        H  0.52640854  0.83620184  0.00191169     0.42500
H520        H  0.11676261  0.94319322  0.00619587     0.37300
H521        H  0.07747007  0.57000565  0.00147954     0.43400
H522        H  0.47422704  0.65302313  0.51417286     0.39800
H523        H  0.39967592  0.78195414  0.01330849     0.44700
H524        H  0.07998756  0.90249364  0.00195390     0.43500
H525        H  0.51342624  0.62141063  0.03219942     0.43600
H526        H  0.24747426  0.45754988  0.00797999     0.44000
C527        C  0.44960340  0.82532105  0.41637021    -0.04900
C528        C  0.47589091  0.78799877  0.41938134    -0.04800
C529        C  0.48504429  0.76067966  0.39527106    -0.22900
C530        C  0.46781517  0.77010341  0.36782144     0.19300
C531        C  0.43958020  0.80627645  0.36495978     0.16500
C532        C  0.43066188  0.83352989  0.38918093    -0.18000
C533        C  0.42184741  0.81562294  0.33770785    -0.19800
C534        C  0.43280385  0.79009906  0.31332730    -0.12400
C535        C  0.46144840  0.75462821  0.31574837     0.04300
C536        C  0.47902529  0.74474695  0.34307238    -0.24500
H537        H  0.49080510  0.78096214  0.44015613     0.09400
H538        H  0.50637321  0.73285521  0.39796339     0.13000
H539        H  0.40978244  0.86181097  0.38670815     0.12900
H540        H  0.40021239  0.84323482  0.33513767     0.12700
H541        H  0.41959178  0.79873117  0.29236377     0.13200
H542        H  0.50130054  0.71751089  0.34494857     0.15200
C543        C  0.44956684  0.82206342  0.11471192    -0.04900
C544        C  0.47471887  0.78389479  0.11134089    -0.04800
C545        C  0.48411163  0.75759182  0.13547225    -0.22900
C546        C  0.46800870  0.76876883  0.16324689     0.19300
C547        C  0.44057930  0.80559606  0.16647508     0.16500
C548        C  0.43165493  0.83194757  0.14228658    -0.18000
C549        C  0.42347299  0.81630801  0.19399833    -0.19800
C550        C  0.43383526  0.79107676  0.21824627    -0.12400
C551        C  0.46151312  0.75477132  0.21542991     0.04300
C552        C  0.47917098  0.74420905  0.18790375    -0.24500
H553        H  0.48881192  0.77560878  0.09031108     0.09400
H554        H  0.50465210  0.72907324  0.13251515     0.13000
H555        H  0.41162303  0.86093510  0.14508351     0.12900
H556        H  0.40243666  0.84447360  0.19682372     0.12700
H557        H  0.42075098  0.80036438  0.23934750     0.13200
H558        H  0.50106412  0.71660171  0.18573932     0.15200
C559        C  0.39211453  0.67707509  0.31763926    -0.04900
C560        C  0.42140050  0.64226350  0.31419910    -0.04800
C561        C  0.43447932  0.61766991  0.33814930    -0.22900
C562        C  0.41849957  0.62725621  0.36618265     0.19300
C563        C  0.38987222  0.66290464  0.37025854     0.16500
C564        C  0.37622043  0.68722144  0.34585538    -0.18000
C565        C  0.37497683  0.67287146  0.39859705    -0.19800
C566        C  0.38687106  0.64666928  0.42237715    -0.12400
C567        C  0.41356398  0.60969350  0.41829901     0.04300
C568        C  0.42987259  0.60090157  0.39003816    -0.24500
H569        H  0.43336790  0.63331898  0.29271309     0.09400
H570        H  0.45657302  0.59055166  0.33464640     0.13000
H571        H  0.35342759  0.71390849  0.34872142     0.12900
H572        H  0.35346809  0.70042048  0.40230995     0.12700
H573        H  0.37380351  0.65430446  0.44379971     0.13200
H574        H  0.45094842  0.57292297  0.38646380     0.15200
C575        C  0.43549678  0.60604502  0.12389590    -0.04900
C576        C  0.46100168  0.59333841  0.14783220    -0.04800
C577        C  0.45415860  0.61107472  0.17564265    -0.22900
C578        C  0.42183189  0.64236177  0.18029476     0.19300
C579        C  0.39799160  0.65813908  0.15629966     0.16500
C580        C  0.40497498  0.63987214  0.12808441    -0.18000
C581        C  0.36645683  0.69052622  0.16130434    -0.19800
C582        C  0.35836524  0.70644880  0.18967148    -0.12400
C583        C  0.38162736  0.69037476  0.21358946     0.04300
C584        C  0.41268366  0.65757256  0.20868718    -0.24500
H585        H  0.48505093  0.56776168  0.14524905     0.09400
H586        H  0.47334402  0.59929824  0.19368352     0.13000
H587        H  0.38486742  0.64979989  0.10995792     0.12900
H588        H  0.34779664  0.70325415  0.14334427     0.12700
H589        H  0.33382318  0.73131840  0.19300711     0.13200
H590        H  0.42986361  0.64399506  0.22704339     0.15200
C591        C  0.23718255  0.02700747  0.32373219    -0.04900
C592        C  0.23553631  0.97936781  0.32580554    -0.04800
C593        C  0.24723834  0.95906823  0.35182659    -0.22900
C594        C  0.26063333  0.98624131  0.37606884     0.19300
C595        C  0.25779602  0.03396364  0.37499609     0.16500
C596        C  0.25147464  0.55878833  0.34779794    -0.18000
C597        C  0.27197449  0.56311362  0.39916654    -0.19800
C598        C  0.28915978  0.54262829  0.42359964    -0.12400
C599        C  0.29607297  0.99521733  0.42367417     0.04300
C600        C  0.28026010  0.96714731  0.40038573    -0.24500
H601        H  0.22912723  0.95812608  0.30661566     0.09400
H602        H  0.24864905  0.92240746  0.35238640     0.13000
H603        H  0.25163848  0.59563882  0.34714833     0.12900
H604        H  0.26819007  0.59943943  0.39972289     0.12700
H605        H  0.29897357  0.56366194  0.44239647     0.13200
H606        H  0.28559344  0.93112260  0.40051347     0.15200
C607        C  0.24711086  0.01971891  0.21976575    -0.04900
C608        C  0.24922675  0.97222950  0.21856565    -0.04800
C609        C  0.26265821  0.95093350  0.19281909    -0.22900
C610        C  0.27332398  0.97683427  0.16783160     0.19300
C611        C  0.26750713  0.02411206  0.16837068     0.16500
C612        C  0.25563649  0.04531360  0.19446849    -0.18000
C613        C  0.27638204  0.04999710  0.14328720    -0.19800
C614        C  0.29360152  0.02990449  0.11839952    -0.12400
C615        C  0.30306080  0.98394393  0.11836148     0.04300
C616        C  0.29210834  0.95711435  0.14291422    -0.24500
H617        H  0.24381634  0.95218003  0.23810749     0.09400
H618        H  0.26650688  0.91462390  0.19280339     0.13000
H619        H  0.25480109  0.08209018  0.19552395     0.12900
H620        H  0.27168295  0.08614958  0.14327979     0.12700
H621        H  0.30248643  0.05110897  0.09974581     0.13200
H622        H  0.29975747  0.92170322  0.14297053     0.15200
C623        C  0.14360206  0.05547274  0.32004905    -0.04900
C624        C  0.14938894  0.59007900  0.34403542    -0.04800
C625        C  0.13665155  0.58065956  0.37284993    -0.22900
C626        C  0.11571065  0.03911895  0.37815967     0.19300
C627        C  0.11470966  0.00270724  0.35765897     0.16500
C628        C  0.12927218  0.01100629  0.32879923    -0.18000
C629        C  0.09622333  0.95934118  0.36586905    -0.19800
C630        C  0.07624825  0.95285740  0.39336128    -0.12400
C631        C  0.07579022  0.98914846  0.41348010     0.04300
C632        C  0.09714581  0.03182672  0.40618417    -0.24500
H633        H  0.15917325  0.62498396  0.33800170     0.09400
H634        H  0.13749381  0.60840316  0.38861469     0.13000
H635        H  0.12670095  0.98363394  0.31272891     0.12900
H636        H  0.09499636  0.93104673  0.35049861     0.12700
H637        H  0.55901619  0.91957602  0.39812398     0.13200
H638        H  0.09795513  0.55646016  0.42370802     0.15200
C639        C  0.08368902  0.99886853  0.11380363    -0.04900
C640        C  0.10889054  0.54476134  0.11434756    -0.04800
C641        C  0.13266141  0.56176502  0.13887727    -0.22900
C642        C  0.13119433  0.53684505  0.16477373     0.19300
C643        C  0.10970343  0.98900965  0.16367936     0.16500
C644        C  0.08419906  0.97274379  0.13935514    -0.18000
C645        C  0.10923471  0.96427403  0.18973742    -0.19800
C646        C  0.12865506  0.98416819  0.21510790    -0.12400
C647        C  0.14825428  0.02917824  0.21481616     0.04300
C648        C  0.14858389  0.55676178  0.19073882    -0.24500
H649        H  0.60782860  0.56367305  0.09455490     0.09400
H650        H  0.15045896  0.59534435  0.13800246     0.13000
H651        H  0.06335827  0.94085325  0.14067911     0.12900
H652        H  0.09161568  0.93064899  0.19092331     0.12700
H653        H  0.12468485  0.96600898  0.23547694     0.13200
H654        H  0.16178541  0.59221402  0.19101333     0.15200
N655        N  0.17064345  0.04728704  0.76871874    -0.03100
C656        C  0.15165317  0.55658022  0.74362811    -0.00500
C657        C  0.12115537  0.58865204  0.74908929    -0.23400
C658        C  0.12015237  0.59537185  0.77844602    -0.23600
C659        C  0.15015111  0.56731766  0.79014771    -0.00600
H660        H  0.09802754  0.60157080  0.73365959     0.13200
H661        H  0.09652400  0.61493787  0.79026093     0.13200
N662        N  0.21783407  0.04053742  0.77009246    -0.03100
C663        C  0.24353771  0.05320463  0.79395464    -0.00500
C664        C  0.28482475  0.07421364  0.78583373    -0.23400
C665        C  0.28656559  0.07253365  0.75622969    -0.23600
C666        C  0.24632439  0.05051018  0.74709559    -0.00600
H667        H  0.31314552  0.08374564  0.79997587     0.13200
H668        H  0.31643769  0.08054590  0.74304905     0.13200
N669        N  0.38969527  0.70053097  0.76592443    -0.03100
C670        C  0.36011329  0.69564329  0.74316895    -0.01500
C671        C  0.31654280  0.68854330  0.75385863    -0.23400
C672        C  0.31959884  0.68504081  0.78363994    -0.23600
C673        C  0.36491433  0.69024832  0.79043068    -0.00600
H674        H  0.28642421  0.67978874  0.74118606     0.13200
H675        H  0.29234817  0.67310391  0.79807715     0.13200
N676        N  0.43684294  0.71488022  0.76508144    -0.03100
C677        C  0.46437234  0.72236779  0.78856589    -0.00500
C678        C  0.50885685  0.72629027  0.77939673    -0.23400
C679        C  0.50832653  0.72632765  0.74944267    -0.23600
C680        C  0.46352588  0.72246634  0.74114659    -0.00600
H681        H  0.53791317  0.73683400  0.79266325     0.13200
H682        H  0.53695975  0.73679893  0.73571926     0.13200
O683        O  0.06557312  0.99798193  0.56384589    -0.74900
O684        O  0.51147151  0.97571747  0.59805071    -0.53800
C685        C  0.55198696  0.98915264  0.59023924     0.78800
O686        O  0.41767078  0.59515363  0.97015819    -0.59500
O687        O  0.42934951  0.53974745  0.93639927    -0.52500
C688        C  0.42035167  0.58035342  0.94351697     0.70800
O689        O  0.42967356  0.59170173  0.57040050    -0.74100
O690        O  0.43726084  0.53171797  0.60066460    -0.54600
C691        C  0.43283799  0.57396907  0.59601459     0.76800
O692        O  0.06105552  0.98573085  0.96426759    -0.59200
O693        O  0.50274794  0.97568069  0.93210318    -0.52300
C694        C  0.04426413  0.98115730  0.93843173     0.73400
Zr695      Zr  0.53249065  0.98107290  0.51506257     2.54700
O696        O  0.08817185  0.54539635  0.51307738    -0.79800
O697        O  0.08713356  0.92609152  0.51687682    -0.93200
Zr698      Zr  0.43204766  0.56302851  0.51892964     2.64700
O699        O  0.49080113  0.62550914  0.51677853    -0.98200
O700        O  0.37200488  0.61431577  0.52324920    -0.80200
O701        O  0.48318585  0.52101172  0.54523728    -0.83600
O702        O  0.48141766  0.52578521  0.98947403    -2.18300
O703        O  0.44774704  0.84216087  0.96548278    -0.67000
O704        O  0.43728462  0.89846363  0.93305264    -0.51500
C705        C  0.44389018  0.85701195  0.93938642     0.71800
O706        O  0.31505277  0.96775957  0.56904703    -0.59900
O707        O  0.37203233  0.96282553  0.60170991    -0.51800
C708        C  0.33095928  0.96866569  0.59511195     0.73600
O709        O  0.31532456  0.98363798  0.97235912    -0.71300
O710        O  0.36393641  0.96619995  0.93623986    -0.49900
C711        C  0.32660110  0.98042212  0.94531389     0.75000
O712        O  0.44596463  0.83949547  0.56515569    -0.66600
O713        O  0.44001874  0.89568155  0.59919332    -0.53800
C714        C  0.44340045  0.85384633  0.59172623     0.73400
Zr715      Zr  0.44184412  0.87239341  0.51639440     2.77500
O716        O  0.38053532  0.81238631  0.51495806    -0.97300
O717        O  0.49902751  0.81756599  0.51658752    -0.78200
Zr718      Zr  0.34275123  0.95565827  0.51937740     2.70100
O719        O  0.30018402  0.88192840  0.51368858    -0.79400
O720        O  0.26242840  0.46550303  0.52248064    -0.98500
Zr721      Zr  0.44014291  0.96594056  0.57226552     2.21500
Zr722      Zr  0.43505208  0.96815814  0.96159587     2.11100
O723        O  0.38995496  0.91259411  0.98854037    -2.47200
O724        O  0.39194428  0.91194518  0.54616076    -0.79200
O725        O  0.48708627  0.92636857  0.98707531    -0.71400
O726        O  0.38801610  0.50816293  0.54630982    -2.32400
O727        O  0.49019141  0.92519221  0.54344588    -2.28600
O728        O  0.38558382  0.51257030  0.99208833    -0.73200
H729        H  0.49786724  0.54677748  0.97647758     0.78800
H730        H  0.37043661  0.52598279  0.55919539     0.79900
H731        H  0.37204958  0.89248004  0.97562572     0.82100
H732        H  0.51018570  0.90930077  0.55554461     0.79800
H733        H  0.34667169  0.59895752  0.51201391     0.42800
H734        H  0.26095649  0.49887343  0.52092035     0.41800
H735        H  0.28439606  0.87703888  0.53258659     0.41400
H736        H  0.39567865  0.78373698  0.51632566     0.39400
H737        H  0.52588818  0.83439613  0.52534538     0.42500
H738        H  0.11692252  0.94335251  0.51480676     0.37300
H739        H  0.07133603  0.57236162  0.51747887     0.43400
H740        H  0.47855191  0.65491197  0.02183835     0.39800
H741        H  0.36482206  0.81505867  0.53392031     0.44700
H742        H  0.08280608  0.90895047  0.49827108     0.43500
H743        H  0.50271303  0.62842846  0.53688309     0.43600
H744        H  0.24857268  0.45271367  0.50427687     0.44000
C745        C  0.44797695  0.82430642  0.91487326    -0.04900
C746        C  0.47253387  0.78574659  0.91809321    -0.04800
C747        C  0.47949047  0.75687998  0.89430599    -0.22900
C748        C  0.46147961  0.76568425  0.86695169     0.19300
C749        C  0.43488100  0.80308733  0.86388380     0.16500
C750        C  0.42865717  0.83229854  0.88771345    -0.18000
C751        C  0.41567986  0.81127314  0.83684541    -0.19800
C752        C  0.42372786  0.78349342  0.81283914    -0.12400
C753        C  0.45140591  0.74721013  0.81528203     0.04300
C754        C  0.47022919  0.73838504  0.84248960    -0.24500
H755        H  0.48759896  0.77868299  0.93881744     0.09400
H756        H  0.49944859  0.72804340  0.89721431     0.13000
H757        H  0.40902970  0.86147521  0.88504675     0.12900
H758        H  0.39506708  0.83966499  0.83412509     0.12700
H759        H  0.40950581  0.79136792  0.79202561     0.13200
H760        H  0.49172245  0.71051954  0.84448364     0.15200
C761        C  0.44539261  0.82037481  0.61552934    -0.04900
C762        C  0.47007559  0.78186653  0.61199954    -0.04800
C763        C  0.47674760  0.75346757  0.63559146    -0.22900
C764        C  0.45856049  0.76291744  0.66305771     0.19300
C765        C  0.43117052  0.79978261  0.66636069     0.16500
C766        C  0.42488301  0.82829942  0.64264219    -0.18000
C767        C  0.41206081  0.80864777  0.69363541    -0.19800
C768        C  0.42151070  0.78243977  0.71768447    -0.12400
C769        C  0.44995600  0.74672540  0.71487709     0.04300
C770        C  0.46840490  0.73710146  0.68744705    -0.24500
H771        H  0.48589833  0.77483518  0.59129732     0.09400
H772        H  0.49716151  0.72486517  0.63254904     0.13000
H773        H  0.40499989  0.85737926  0.64548302     0.12900
H774        H  0.39075061  0.83657263  0.69653783     0.12700
H775        H  0.40746956  0.79081516  0.73869132     0.13200
H776        H  0.49059303  0.70974848  0.68523160     0.15200
C777        C  0.38229493  0.66863044  0.81675847    -0.04900
C778        C  0.41005798  0.63248326  0.81343965    -0.04800
C779        C  0.42451723  0.60961618  0.83774270    -0.22900
C780        C  0.41170193  0.62266002  0.86589699     0.19300
C781        C  0.38457146  0.65956691  0.86966002     0.16500
C782        C  0.36923835  0.68181756  0.84497490    -0.18000
C783        C  0.37295550  0.67306512  0.89803032    -0.19800
C784        C  0.38633124  0.64892377  0.92233282    -0.12400
C785        C  0.41137060  0.61067247  0.91869718     0.04300
C786        C  0.42476584  0.59860396  0.89026746    -0.24500
H787        H  0.41982963  0.62137250  0.79188961     0.09400
H788        H  0.44535701  0.58138807  0.83449388     0.13000
H789        H  0.34771735  0.70962936  0.84762174     0.12900
H790        H  0.35277069  0.70175199  0.90139343     0.12700
H791        H  0.37559610  0.65911487  0.94385098     0.13200
H792        H  0.44464591  0.56963700  0.88694448     0.15200
C793        C  0.43065546  0.60195591  0.62305907    -0.04900
C794        C  0.45583171  0.58936867  0.64716649    -0.04800
C795        C  0.44698454  0.60535075  0.67511090    -0.22900
C796        C  0.41314689  0.63497890  0.67968187     0.19300
C797        C  0.38950261  0.65066789  0.65556958     0.16500
C798        C  0.39833385  0.63395656  0.62723541    -0.18000
C799        C  0.35653127  0.68155003  0.66053126    -0.19800
C800        C  0.34738930  0.69666547  0.68892906    -0.12400
C801        C  0.37088880  0.68108723  0.71290679     0.04300
C802        C  0.40270659  0.64905656  0.70808382    -0.24500
H803        H  0.48109942  0.56501810  0.64457010     0.09400
H804        H  0.46599221  0.59367365  0.69326375     0.13000
H805        H  0.37837920  0.64359234  0.60895682     0.12900
H806        H  0.33784575  0.69400093  0.64249062     0.12700
H807        H  0.32205296  0.72071868  0.69221858     0.13200
H808        H  0.41988788  0.63564179  0.72649437     0.15200
C809        C  0.23993366  0.03147846  0.82287241    -0.04900
C810        C  0.23737067  0.98378595  0.82491115    -0.04800
C811        C  0.24868241  0.96316341  0.85093597    -0.22900
C812        C  0.26249373  0.99004100  0.87524652     0.19300
C813        C  0.26079982  0.03788673  0.87415918     0.16500
C814        C  0.25015930  0.55701726  0.84814031    -0.18000
C815        C  0.27288151  0.56442495  0.89884285    -0.19800
C816        C  0.29048216  0.54487153  0.92340860    -0.12400
C817        C  0.29713861  0.99808542  0.92321056     0.04300
C818        C  0.28122537  0.97043934  0.89972082    -0.24500
H819        H  0.23022133  0.96267314  0.80575025     0.09400
H820        H  0.24920068  0.92640615  0.85150859     0.13000
H821        H  0.25387593  0.59382455  0.84606847     0.12900
H822        H  0.27251154  0.60118586  0.89795183     0.12700
H823        H  0.30384372  0.56694617  0.94089722     0.13200
H824        H  0.28573734  0.93423866  0.89986201     0.15200
C825        C  0.24609538  0.02530827  0.71911237    -0.04900
C826        C  0.24923494  0.97795332  0.71897688    -0.04800
C827        C  0.26317672  0.95558042  0.69377406    -0.22900
C828        C  0.27314649  0.98017587  0.66818834     0.19300
C829        C  0.26632109  0.02722320  0.66762626     0.16500
C830        C  0.25410585  0.04961660  0.69323868    -0.18000
C831        C  0.27444890  0.05172834  0.64191484    -0.19800
C832        C  0.29181660  0.03056893  0.61747409    -0.12400
C833        C  0.30235873  0.98499243  0.61854127     0.04300
C834        C  0.29216527  0.95943464  0.64372200    -0.24500
H835        H  0.24434443  0.95894147  0.73897262     0.09400
H836        H  0.26788701  0.91948677  0.69463183     0.13000
H837        H  0.25262412  0.08633705  0.69345681     0.12900
H838        H  0.26896388  0.08765839  0.64103700     0.12700
H839        H  0.30004446  0.05077903  0.59828353     0.13200
H840        H  0.30056390  0.92429355  0.64459785     0.15200
C841        C  0.14541168  0.05477497  0.82158091    -0.04900
C842        C  0.14960978  0.59126486  0.84238868    -0.04800
C843        C  0.13674807  0.58288178  0.87131890    -0.22900
C844        C  0.11829368  0.03548687  0.87941974     0.19300
C845        C  0.11518578  0.00052477  0.85788243     0.16500
C846        C  0.12969518  0.01018221  0.82920845    -0.18000
C847        C  0.09412035  0.95760800  0.86479023    -0.19800
C848        C  0.07327091  0.95051141  0.89192890    -0.12400
C849        C  0.07476148  0.98552280  0.91301854     0.04300
C850        C  0.09904641  0.02734171  0.90715337    -0.24500
H851        H  0.16040485  0.62578792  0.83601352     0.09400
H852        H  0.13820981  0.61106627  0.88677013     0.13000
H853        H  0.12528808  0.98410846  0.81235069     0.12900
H854        H  0.09131144  0.93043492  0.84861266     0.12700
H855        H  0.55869163  0.91864856  0.89658182     0.13200
H856        H  0.09847728  0.56041676  0.92272905     0.15200
C857        C  0.08528305  0.00339889  0.61411512    -0.04900
C858        C  0.11046889  0.53918176  0.61335959    -0.04800
C859        C  0.13517606  0.55558207  0.63765593    -0.22900
C860        C  0.13146561  0.53219436  0.66412562     0.19300
C861        C  0.10922019  0.99394291  0.66444664     0.16500
C862        C  0.08461458  0.97760647  0.63981753    -0.18000
C863        C  0.10748322  0.96934318  0.69054127    -0.19800
C864        C  0.12623988  0.98907996  0.71609653    -0.12400
C865        C  0.14619670  0.03393628  0.71605807     0.04300
C866        C  0.15130668  0.55161598  0.68953434    -0.24500
H867        H  0.60692427  0.56190802  0.59435327     0.09400
H868        H  0.15589401  0.58748978  0.63604492     0.13000
H869        H  0.06338777  0.94594070  0.64103167     0.12900
H870        H  0.08955608  0.93584868  0.69154933     0.12700
H871        H  0.12154082  0.97088685  0.73641485     0.13200
H872        H  0.16811864  0.58569579  0.68890181     0.15200
N873        N  0.66990643  0.54807357  0.26897999    -0.03100
C874        C  0.64988944  0.05650406  0.24287835    -0.00500
C875        C  0.61788998  0.08716929  0.24807422    -0.23400
C876        C  0.61617082  0.09397156  0.27743233    -0.23600
C877        C  0.64720370  0.06732863  0.28942341    -0.00600
H878        H  0.59461143  0.09924746  0.23241826     0.13200
H879        H  0.59162199  0.11267646  0.28903855     0.13200
N880        N  0.71758937  0.54386387  0.26986378    -0.03100
C881        C  0.74328010  0.55756603  0.29346629    -0.00500
C882        C  0.78372592  0.58005121  0.28505560    -0.23400
C883        C  0.78492173  0.57837838  0.25543339    -0.23600
C884        C  0.74517706  0.55490717  0.24665794    -0.00600
H885        H  0.81209176  0.59044635  0.29897322     0.13200
H886        H  0.81431431  0.58738012  0.24200576     0.13200
N887        N  0.88893859  0.20113898  0.26556058    -0.03100
C888        C  0.85927685  0.19498249  0.24292474    -0.01500
C889        C  0.81576575  0.18808984  0.25376329    -0.23400
C890        C  0.81896624  0.18595631  0.28359182    -0.23600
C891        C  0.86432132  0.19149171  0.29024985    -0.00600
H892        H  0.78558425  0.17873156  0.24127889     0.13200
H893        H  0.79181281  0.17449236  0.29823241     0.13200
N894        N  0.93572766  0.21706449  0.26450830    -0.03100
C895        C  0.96329114  0.22566604  0.28787846    -0.00500
C896        C  0.00767886  0.23117840  0.27862135    -0.23400
C897        C  0.00699240  0.23087952  0.24870468    -0.23600
C898        C  0.96218754  0.22527680  0.24049375    -0.00600
H899        H  0.03652749  0.24274651  0.29180417     0.13200
H900        H  0.03528275  0.24214170  0.23489975     0.13200
O901        O  0.56274836  0.49560683  0.06492444    -0.74900
O902        O  0.00955879  0.47639263  0.09922465    -0.53800
C903        C  0.04996454  0.49061880  0.09166927     0.78800
O904        O  0.91663606  0.09425369  0.46952558    -0.59500
O905        O  0.92778436  0.03855349  0.43583224    -0.52500
C906        C  0.91861725  0.07914974  0.44292547     0.70800
O907        O  0.92976224  0.09291423  0.07002644    -0.74100
O908        O  0.94016681  0.03377076  0.10042430    -0.54600
C909        C  0.93439227  0.07570285  0.09563165     0.76800
O910        O  0.56279805  0.48586708  0.46528030    -0.59200
O911        O  0.00225779  0.47546406  0.43297704    -0.52300
C912        C  0.54660282  0.48177589  0.43926128     0.73400
Zr913      Zr  0.03221607  0.48377761  0.01571436     2.54700
O914        O  0.58791145  0.04713780  0.01152791    -0.79800
O915        O  0.59008086  0.42905369  0.01656790    -0.93200
Zr916      Zr  0.93329875  0.06408417  0.01878741     2.64700
O917        O  0.99690076  0.12153061  0.01727293    -0.98200
O918        O  0.87784129  0.12041570  0.02241698    -0.80200
O919        O  0.98413023  0.02157777  0.04482389    -0.83600
O920        O  0.98163978  0.02590070  0.48906269    -2.18300
O921        O  0.94809038  0.34335951  0.46553979    -0.67000
O922        O  0.93456857  0.39901775  0.43332528    -0.51500
C923        C  0.94293885  0.35796162  0.43949700     0.71800
O924        O  0.81443192  0.47232000  0.06913695    -0.59900
O925        O  0.87101938  0.46527091  0.10178561    -0.51800
C926        C  0.83029753  0.47258989  0.09519863     0.73600
O927        O  0.81298626  0.48377173  0.47165000    -0.71300
O928        O  0.86321127  0.46896965  0.43583505    -0.49900
C929        C  0.82516856  0.48179550  0.44471991     0.75000
O930        O  0.94264991  0.34059081  0.06419860    -0.66600
O931        O  0.93925243  0.39674933  0.09855542    -0.53800
C932        C  0.94132491  0.35484476  0.09081407     0.73400
Zr933      Zr  0.94073814  0.37468611  0.01582605     2.77500
O934        O  0.88180996  0.31227046  0.01290993    -0.97300
O935        O  0.99815848  0.32029879  0.01767782    -0.78200
Zr936      Zr  0.84169391  0.45856030  0.01952777     2.70100
O937        O  0.79991451  0.38411879  0.01593122    -0.79400
O938        O  0.76299882  0.97239204  0.02384881    -0.98500
Zr939      Zr  0.93912635  0.46767107  0.07238012     2.21500
Zr940      Zr  0.93377670  0.46911000  0.46178533     2.11100
O941        O  0.88770583  0.41404395  0.48851846    -2.47200
O942        O  0.89085958  0.41417973  0.04587387    -0.79200
O943        O  0.98543406  0.42689142  0.48746200    -0.71400
O944        O  0.88838418  0.00983751  0.04621749    -2.32400
O945        O  0.98919351  0.42721264  0.04327145    -2.28600
O946        O  0.88607637  0.01211839  0.49183129    -0.73200
H947        H  0.99782664  0.04681646  0.47590617     0.78800
H948        H  0.87078641  0.02749456  0.05919155     0.79900
H949        H  0.86973330  0.39408077  0.47554958     0.82100
H950        H  0.00900396  0.41102637  0.05531579     0.79800
H951        H  0.84858670  0.10205751  0.02450754     0.42800
H952        H  0.76296620  0.00556210  0.02049972     0.41800
H953        H  0.79625707  0.37403854  0.03638346     0.41400
H954        H  0.86451456  0.31811110  0.99518566     0.39400
H955        H  0.02647714  0.33911496  0.02203128     0.42500
H956        H  0.61812636  0.44712973  0.01071716     0.37300
H957        H  0.58029654  0.06315004  0.99357481     0.43400
H958        H  0.99419117  0.13482524  0.49459235     0.39800
H959        H  0.89808766  0.28515091  0.00782888     0.44700
H960        H  0.58296013  0.40826625  0.99980931     0.43500
H961        H  0.01425716  0.11629035  0.03512034     0.43600
H962        H  0.74735839  0.95785849  0.00672675     0.44000
C963        C  0.94768586  0.32562557  0.41481165    -0.04900
C964        C  0.97603432  0.28976454  0.41700817    -0.04800
C965        C  0.98337431  0.26155820  0.39293900    -0.22900
C966        C  0.96206690  0.26834428  0.36632653     0.19300
C967        C  0.93215166  0.30317840  0.36423754     0.16500
C968        C  0.92537103  0.33165681  0.38837125    -0.18000
C969        C  0.91036389  0.30976026  0.33780503    -0.19800
C970        C  0.91915837  0.28308307  0.31339736    -0.12400
C971        C  0.94970287  0.24913910  0.31495480     0.04300
C972        C  0.97091849  0.24172732  0.34159561    -0.24500
H973        H  0.99367016  0.28442156  0.43710856     0.09400
H974        H  0.00623014  0.23489397  0.39501738     0.13000
H975        H  0.90303629  0.35884582  0.38648855     0.12900
H976        H  0.88730313  0.33625741  0.33581719     0.12700
H977        H  0.90314102  0.28999407  0.29297091     0.13200
H978        H  0.99472628  0.21577745  0.34286191     0.15200
C979        C  0.94360254  0.32123260  0.11439404    -0.04900
C980        C  0.97099592  0.28468160  0.11138479    -0.04800
C981        C  0.97845905  0.25692972  0.13517030    -0.22900
C982        C  0.95816122  0.26496806  0.16222085     0.19300
C983        C  0.92827296  0.29983220  0.16490814     0.16500
C984        C  0.92135937  0.32781535  0.14104864    -0.18000
C985        C  0.90726217  0.30739917  0.19175671    -0.19800
C986        C  0.91718000  0.28196222  0.21605395    -0.12400
C987        C  0.94786090  0.24816350  0.21387705     0.04300
C988        C  0.96824760  0.23977553  0.18682767    -0.24500
H989        H  0.98837495  0.27894908  0.09102572     0.09400
H990        H  0.00101955  0.22998434  0.13261947     0.13000
H991        H  0.89965045  0.35555649  0.14343094     0.12900
H992        H  0.88410387  0.33383181  0.19416283     0.12700
H993        H  0.90177265  0.28953861  0.23679482     0.13200
H994        H  0.99225836  0.21399700  0.18511044     0.15200
C995        C  0.88182974  0.17006891  0.31664714    -0.04900
C996        C  0.91112854  0.13522622  0.31334689    -0.04800
C997        C  0.92542728  0.11204628  0.33756173    -0.22900
C998        C  0.91079609  0.12332975  0.36564553     0.19300
C999        C  0.88199917  0.15888305  0.36944065     0.16500
C1000       C  0.86704615  0.18161257  0.34481933    -0.18000
C1001       C  0.86831116  0.17048176  0.39776012    -0.19800
C1002       C  0.88172219  0.14606021  0.42193170    -0.12400
C1003       C  0.90879037  0.10933643  0.41822470     0.04300
C1004       C  0.92377491  0.09886253  0.38988976    -0.24500
H1005       H  0.92220961  0.12527190  0.29183910     0.09400
H1006       H  0.94752939  0.08486913  0.33427571     0.13000
H1007       H  0.84423314  0.20832020  0.34748269     0.12900
H1008       H  0.84659973  0.19794304  0.40117306     0.12700
H1009       H  0.86956238  0.15484105  0.44338916     0.13200
H1010       H  0.94506185  0.07098443  0.38656880     0.15200
C1011       C  0.93195351  0.10397934  0.12245595    -0.04900
C1012       C  0.95914082  0.09377585  0.14615118    -0.04800
C1013       C  0.95025867  0.10954438  0.17416767    -0.22900
C1014       C  0.91432397  0.13653405  0.17914808     0.19300
C1015       C  0.88852689  0.14986574  0.15533893     0.16500
C1016       C  0.89738414  0.13334551  0.12700405    -0.18000
C1017       C  0.85349537  0.17822856  0.16058351    -0.19800
C1018       C  0.84453441  0.19342300  0.18895426    -0.12400
C1019       C  0.87004635  0.18018039  0.21269000     0.04300
C1020       C  0.90386017  0.15030755  0.20762720    -0.24500
H1021       H  0.98603659  0.07132995  0.14320626     0.09400
H1022       H  0.97090720  0.09972304  0.19206078     0.13000
H1023       H  0.87582480  0.14095480  0.10903220     0.12900
H1024       H  0.83311806  0.18875299  0.14276491     0.12700
H1025       H  0.81767142  0.21570086  0.19240804     0.13200
H1026       H  0.92261578  0.13847680  0.22585622     0.15200
C1027       C  0.74109982  0.53510664  0.32203683    -0.04900
C1028       C  0.73981394  0.48741790  0.32337644    -0.04800
C1029       C  0.75109735  0.46626170  0.34916471    -0.22900
C1030       C  0.76351453  0.49259505  0.37394976     0.19300
C1031       C  0.76108230  0.54040464  0.37339836     0.16500
C1032       C  0.74629050  0.05590914  0.34875611    -0.18000
C1033       C  0.76923457  0.06247393  0.39962757    -0.19800
C1034       C  0.78814311  0.04313204  0.42390224    -0.12400
C1035       C  0.79589574  0.49954965  0.42255240     0.04300
C1036       C  0.78141062  0.47248526  0.39849230    -0.24500
H1037       H  0.73336628  0.46680935  0.30391434     0.09400
H1038       H  0.75238684  0.42956927  0.34927584     0.13000
H1039       H  0.74678534  0.09273714  0.34750624     0.12900
H1040       H  0.76574198  0.09885684  0.39960020     0.12700
H1041       H  0.79937908  0.06504404  0.44200958     0.13200
H1042       H  0.78644264  0.43638982  0.39828124     0.15200
C1043       C  0.74506499  0.52967405  0.21878397    -0.04900
C1044       C  0.74792328  0.48228286  0.21868106    -0.04800
C1045       C  0.76170999  0.45987557  0.19348630    -0.22900
C1046       C  0.77207221  0.48457375  0.16800364     0.19300
C1047       C  0.76538406  0.53166141  0.16741929     0.16500
C1048       C  0.75289191  0.55399610  0.19293823    -0.18000
C1049       C  0.77413658  0.55630463  0.14183717    -0.19800
C1050       C  0.79203771  0.53521535  0.11755928    -0.12400
C1051       C  0.80217980  0.48950643  0.11864885     0.04300
C1052       C  0.79141613  0.46387540  0.14368997    -0.24500
H1053       H  0.74288803  0.46326471  0.23866593     0.09400
H1054       H  0.76618949  0.42372874  0.19430518     0.13000
H1055       H  0.75131706  0.59070919  0.19315976     0.12900
H1056       H  0.76881097  0.59227786  0.14097241     0.12700
H1057       H  0.80075161  0.55547332  0.09846264     0.13200
H1058       H  0.79955052  0.42865069  0.14456147     0.15200
C1059       C  0.64548777  0.55668413  0.32196294    -0.04900
C1060       C  0.64621376  0.09138244  0.34169872    -0.04800
C1061       C  0.63359829  0.08271339  0.37065253    -0.22900
C1062       C  0.61878014  0.53795648  0.37997739     0.19300
C1063       C  0.61842747  0.50218709  0.35904979     0.16500
C1064       C  0.63256513  0.51166589  0.33025577    -0.18000
C1065       C  0.60032345  0.45838929  0.36665587    -0.19800
C1066       C  0.57937565  0.45102941  0.39377786    -0.12400
C1067       C  0.57780425  0.48682026  0.41415822     0.04300
C1068       C  0.59946262  0.52971578  0.40769143    -0.24500
H1069       H  0.65652798  0.12602986  0.33535442     0.09400
H1070       H  0.63481800  0.11079462  0.38617979     0.13000
H1071       H  0.63000639  0.48485391  0.31380324     0.12900
H1072       H  0.59977643  0.43053306  0.35098297     0.12700
H1073       H  0.05788460  0.41826262  0.39760652     0.13200
H1074       H  0.59616422  0.05930572  0.42217740     0.15200
C1075       C  0.58160277  0.50129757  0.11525293    -0.04900
C1076       C  0.61234039  0.03956042  0.11212782    -0.04800
C1077       C  0.63619765  0.05669740  0.13658340    -0.22900
C1078       C  0.63346336  0.03274597  0.16286567     0.19300
C1079       C  0.60669403  0.49207070  0.16535799     0.16500
C1080       C  0.58210760  0.47522665  0.14081805    -0.18000
C1081       C  0.60642857  0.46723883  0.19135770    -0.19800
C1082       C  0.62556517  0.48723438  0.21676687    -0.12400
C1083       C  0.64462440  0.53245528  0.21660768     0.04300
C1084       C  0.65118891  0.05297649  0.18865860    -0.24500
H1085       H  0.11170482  0.06025901  0.09269766     0.09400
H1086       H  0.65512234  0.08966921  0.13531192     0.13000
H1087       H  0.56204529  0.44283980  0.14193962     0.12900
H1088       H  0.58935222  0.43334862  0.19243560     0.12700
H1089       H  0.62183861  0.46890620  0.23708692     0.13200
H1090       H  0.66557533  0.08803334  0.18847781     0.15200
N1091       N  0.67126008  0.54688560  0.76888567    -0.03100
C1092       C  0.65100483  0.05971800  0.74269248    -0.00500
C1093       C  0.61920269  0.09043329  0.74829125    -0.23400
C1094       C  0.61712236  0.09583950  0.77774450    -0.23600
C1095       C  0.64785961  0.06843534  0.78930950    -0.00600
H1096       H  0.59601663  0.10313738  0.73281172     0.13200
H1097       H  0.59255977  0.11415494  0.78961759     0.13200
N1098       N  0.71849513  0.54034042  0.77039652    -0.03100
C1099       C  0.74439235  0.55254651  0.79424048    -0.00500
C1100       C  0.78679120  0.57075804  0.78615627    -0.23400
C1101       C  0.78868190  0.56853844  0.75660414    -0.23600
C1102       C  0.74740009  0.54897022  0.74745798    -0.00600
H1103       H  0.81528534  0.57905333  0.80038070     0.13200
H1104       H  0.81883127  0.57499538  0.74343622     0.13200
N1105       N  0.89788646  0.20693521  0.76627695    -0.03100
C1106       C  0.86792820  0.20182926  0.74376715    -0.01500
C1107       C  0.82457153  0.19423229  0.75474828    -0.23400
C1108       C  0.82814052  0.19071490  0.78448411    -0.23600
C1109       C  0.87357803  0.19622051  0.79096810    -0.00600
H1110       H  0.79430473  0.18519053  0.74227842     0.13200
H1111       H  0.80117441  0.17855592  0.79907341     0.13200
N1112       N  0.94481387  0.22223870  0.76502529    -0.03100
C1113       C  0.97240135  0.23114313  0.78829288    -0.00500
C1114       C  0.01680040  0.23609239  0.77904458    -0.23400
C1115       C  0.01609773  0.23491716  0.74911057    -0.23600
C1116       C  0.97126894  0.22966091  0.74093565    -0.00600
H1117       H  0.04570991  0.24773210  0.79214737     0.13200
H1118       H  0.04442799  0.24563710  0.73519410     0.13200
O1119       O  0.56277209  0.49228385  0.56500235    -0.74900
O1120       O  0.00775446  0.47496292  0.59858957    -0.53800
C1121       C  0.04852727  0.48797799  0.59123916     0.78800
O1122       O  0.92096518  0.09351740  0.96926585    -0.59500
O1123       O  0.93015924  0.03781020  0.93516317    -0.52500
C1124       C  0.92285718  0.07883270  0.94258679     0.70800
O1125       O  0.93179282  0.09559642  0.57058621    -0.74100
O1126       O  0.94056283  0.03625360  0.60115532    -0.54600
C1127       C  0.93599513  0.07839160  0.59627653     0.76800
O1128       O  0.56107569  0.48863505  0.96486898    -0.59200
O1129       O  0.00318529  0.47765686  0.93378659    -0.52300
C1130       C  0.54436213  0.48443168  0.93895232     0.73400
Zr1131     Zr  0.03137297  0.48116463  0.51526695     2.54700
O1132       O  0.59103111  0.04348926  0.51135222    -0.79800
O1133       O  0.59522812  0.43286456  0.51715777    -0.93200
Zr1134     Zr  0.93245606  0.06638711  0.51913436     2.64700
O1135       O  0.99190311  0.12794829  0.51563024    -0.98200
O1136       O  0.87467993  0.12016120  0.52438119    -0.80200
O1137       O  0.98424390  0.02463334  0.54508005    -0.83600
O1138       O  0.98143891  0.02306066  0.98847874    -2.18300
O1139       O  0.95009054  0.34584106  0.96612455    -0.67000
O1140       O  0.93677047  0.40158926  0.93394948    -0.51500
C1141       C  0.94545945  0.36066215  0.94008980     0.71800
O1142       O  0.81255096  0.46995712  0.56812703    -0.59900
O1143       O  0.86947354  0.46456231  0.60078518    -0.51800
C1144       C  0.82845925  0.47078508  0.59422926     0.73600
O1145       O  0.81404239  0.48556144  0.97290487    -0.71300
O1146       O  0.86382527  0.46975285  0.93703745    -0.49900
C1147       C  0.82604009  0.48314925  0.94595781     0.75000
O1148       O  0.94453830  0.34025389  0.56382219    -0.66600
O1149       O  0.93901755  0.39657509  0.59783732    -0.53800
C1150       C  0.94282624  0.35489045  0.59035739     0.73400
Zr1151     Zr  0.93968169  0.37305781  0.51516710     2.77500
O1152       O  0.87974931  0.31169495  0.51354540    -0.97300
O1153       O  0.99639045  0.31779105  0.51536332    -0.78200
Zr1154     Zr  0.84064204  0.45717095  0.51839754     2.70100
O1155       O  0.79935700  0.38266026  0.51316224    -0.79400
O1156       O  0.76494715  0.97611031  0.52513234    -0.98500
Zr1157     Zr  0.93777801  0.46666095  0.57147478     2.21500
Zr1158     Zr  0.93460624  0.47083597  0.96275512     2.11100
O1159       O  0.88850945  0.41559048  0.98937101    -2.47200
O1160       O  0.88965520  0.41287526  0.54500596    -0.79200
O1161       O  0.98644124  0.42887582  0.98827658    -0.71400
O1162       O  0.88901091  0.01161196  0.54689530    -2.32400
O1163       O  0.98785493  0.42535601  0.54283437    -2.28600
O1164       O  0.88609935  0.01084348  0.99128646    -0.73200
H1165       H  0.99800853  0.04389614  0.97543146     0.78800
H1166       H  0.87140840  0.02936862  0.55981090     0.79900
H1167       H  0.87047775  0.39577711  0.97634253     0.82100
H1168       H  0.00756979  0.40918633  0.55497360     0.79800
H1169       H  0.84789690  0.10502912  0.51449253     0.42800
H1170       H  0.76476113  0.00774273  0.51804751     0.41800
H1171       H  0.80100426  0.36875109  0.53263104     0.41400
H1172       H  0.86859214  0.31135207  0.49327500     0.39400
H1173       H  0.02362627  0.33420386  0.50682724     0.42500
H1174       H  0.61909171  0.44862576  0.50497465     0.37300
H1175       H  0.58047566  0.06779610  0.52415009     0.43400
H1176       H  0.98341564  0.15070371  0.02106891     0.39800
H1177       H  0.89568827  0.28350705  0.51502779     0.44700
H1178       H  0.58487012  0.40528701  0.50571941     0.43500
H1179       H  0.97848594  0.15466626  0.52442633     0.43600
H1180       H  0.74763762  0.95717928  0.51040598     0.44000
C1181       C  0.95128955  0.32880495  0.91537182    -0.04900
C1182       C  0.97862682  0.29222239  0.91808972    -0.04800
C1183       C  0.98712466  0.26450025  0.89400649    -0.22900
C1184       C  0.96802381  0.27258174  0.86686937     0.19300
C1185       C  0.93895772  0.30808284  0.86427489     0.16500
C1186       C  0.93105871  0.33605529  0.88840608    -0.18000
C1187       C  0.91902754  0.31576493  0.83739702    -0.19800
C1188       C  0.92874863  0.28939880  0.81307588    -0.12400
C1189       C  0.95859119  0.25490812  0.81513239     0.04300
C1190       C  0.97812784  0.24652066  0.84215404    -0.24500
H1191       H  0.99459678  0.28591426  0.93863917     0.09400
H1192       H  0.00914859  0.23720416  0.89650249     0.13000
H1193       H  0.90945617  0.36378566  0.88611401     0.12900
H1194       H  0.89657355  0.34272964  0.83504974     0.12700
H1195       H  0.91391284  0.29687663  0.79237174     0.13200
H1196       H  0.00128663  0.22002485  0.84379183     0.15200
C1197       C  0.94681396  0.32232247  0.61429602    -0.04900
C1198       C  0.97294023  0.28486327  0.61093344    -0.04800
C1199       C  0.98195587  0.25813126  0.63492717    -0.22900
C1200       C  0.96458162  0.26822143  0.66254573     0.19300
C1201       C  0.93638979  0.30444737  0.66574385     0.16500
C1202       C  0.92776666  0.33119142  0.64167518    -0.18000
C1203       C  0.91839357  0.31430666  0.69316260    -0.19800
C1204       C  0.92880581  0.28898622  0.71736508    -0.12400
C1205       C  0.95727258  0.25331795  0.71458028     0.04300
C1206       C  0.97550814  0.24337884  0.68712031    -0.24500
H1207       H  0.98802259  0.27748068  0.59004594     0.09400
H1208       H  0.00325602  0.23020162  0.63201540     0.13000
H1209       H  0.90710437  0.35971111  0.64441559     0.12900
H1210       H  0.89682349  0.34204227  0.69597657     0.12700
H1211       H  0.91529689  0.29784503  0.73843806     0.13200
H1212       H  0.99801369  0.21628910  0.68498536     0.15200
C1213       C  0.89145002  0.17491415  0.81735469    -0.04900
C1214       C  0.92287362  0.14198194  0.81419271    -0.04800
C1215       C  0.93729257  0.11871488  0.83837033    -0.22900
C1216       C  0.92031166  0.12764917  0.86625681     0.19300
C1217       C  0.88937346  0.16133111  0.86992273     0.16500
C1218       C  0.87464377  0.18436545  0.84537524    -0.18000
C1219       C  0.87312974  0.17062019  0.89800632    -0.19800
C1220       C  0.88590311  0.14550779  0.92198771    -0.12400
C1221       C  0.91478951  0.11030844  0.91831537     0.04300
C1222       C  0.93265947  0.10237616  0.89035449    -0.24500
H1223       H  0.93555240  0.13351413  0.79279917     0.09400
H1224       H  0.96109784  0.09306203  0.83515981     0.13000
H1225       H  0.85012901  0.20948425  0.84797102     0.12900
H1226       H  0.84973233  0.19661451  0.90133317     0.12700
H1227       H  0.87156647  0.15225407  0.94319412     0.13200
H1228       H  0.95538416  0.07567199  0.88719701     0.15200
C1229       C  0.93495753  0.10691386  0.62317013    -0.04900
C1230       C  0.96124329  0.09492296  0.64692004    -0.04800
C1231       C  0.95356565  0.11147915  0.67490692    -0.22900
C1232       C  0.91979165  0.14107429  0.67986283     0.19300
C1233       C  0.89506241  0.15615605  0.65604956     0.16500
C1234       C  0.90268794  0.13884791  0.62770396    -0.18000
C1235       C  0.86219840  0.18703203  0.66132022    -0.19800
C1236       C  0.85401771  0.20256690  0.68974039    -0.12400
C1237       C  0.87833210  0.18737733  0.71345396     0.04300
C1238       C  0.91032337  0.15558235  0.70834221    -0.24500
H1239       H  0.98647603  0.07059713  0.64404706     0.09400
H1240       H  0.97339364  0.10023635  0.69280445     0.13000
H1241       H  0.88185402  0.14798527  0.60972878     0.12900
H1242       H  0.84276443  0.19907539  0.64350237     0.12700
H1243       H  0.82863576  0.22650201  0.69327122     0.13200
H1244       H  0.92822927  0.14254128  0.72657049     0.15200
C1245       C  0.73929911  0.53226707  0.82340532    -0.04900
C1246       C  0.73566769  0.48468133  0.82610479    -0.04800
C1247       C  0.74649403  0.46470809  0.85240249    -0.22900
C1248       C  0.76125488  0.49216467  0.87623239     0.19300
C1249       C  0.76102656  0.54011646  0.87440008     0.16500
C1250       C  0.74851219  0.05943922  0.84790031    -0.18000
C1251       C  0.77150093  0.06621944  0.89871857    -0.19800
C1252       C  0.78934807  0.04670651  0.92329837    -0.12400
C1253       C  0.79686692  0.50094647  0.92379833     0.04300
C1254       C  0.77959950  0.47285944  0.90091365    -0.24500
H1255       H  0.72808578  0.46304936  0.80722831     0.09400
H1256       H  0.74606589  0.42791453  0.85351585     0.13000
H1257       H  0.74898541  0.09626030  0.84657794     0.12900
H1258       H  0.76849468  0.10268411  0.89852685     0.12700
H1259       H  0.80041620  0.06854282  0.94147592     0.13200
H1260       H  0.78285581  0.43644922  0.90163361     0.15200
C1261       C  0.74533128  0.52511713  0.71910841    -0.04900
C1262       C  0.74608196  0.47750110  0.71803993    -0.04800
C1263       C  0.75877952  0.45565032  0.69235471    -0.22900
C1264       C  0.77009457  0.48116893  0.66730998     0.19300
C1265       C  0.76542149  0.52868146  0.66770551     0.16500
C1266       C  0.75413937  0.55041594  0.69373568    -0.18000
C1267       C  0.77488237  0.55418516  0.64254630    -0.19800
C1268       C  0.79157881  0.53344306  0.61772541    -0.12400
C1269       C  0.80010451  0.48722400  0.61784963     0.04300
C1270       C  0.78847558  0.46078753  0.64248205    -0.24500
H1271       H  0.74032653  0.45771454  0.73766640     0.09400
H1272       H  0.76166931  0.41918133  0.69245325     0.13000
H1273       H  0.75429878  0.58729248  0.69471945     0.12900
H1274       H  0.77106581  0.59051108  0.64242387     0.12700
H1275       H  0.80091917  0.55433227  0.59900713     0.13200
H1276       H  0.79536515  0.42516565  0.64269319     0.15200
C1277       C  0.64544667  0.55765884  0.82142450    -0.04900
C1278       C  0.64710036  0.09099019  0.84165567    -0.04800
C1279       C  0.63463283  0.08170161  0.87050869    -0.22900
C1280       C  0.61708317  0.53955751  0.87927543     0.19300
C1281       C  0.61603482  0.50380380  0.85831245     0.16500
C1282       C  0.63097624  0.51294313  0.82961845    -0.18000
C1283       C  0.59666555  0.46041516  0.86579821    -0.19800
C1284       C  0.57545310  0.45346758  0.89289332    -0.12400
C1285       C  0.57498872  0.48916766  0.91346032     0.04300
C1286       C  0.59756685  0.53165543  0.90699668    -0.24500
H1287       H  0.65724083  0.12580455  0.83558957     0.09400
H1288       H  0.63576210  0.10949434  0.88624039     0.13000
H1289       H  0.62819848  0.48612664  0.81317424     0.12900
H1290       H  0.59549626  0.43259068  0.85007882     0.12700
H1291       H  0.05876737  0.42118609  0.89874121     0.13200
H1292       H  0.59712160  0.05762031  0.92170921     0.15200
C1293       C  0.58139190  0.49950950  0.61529650    -0.04900
C1294       C  0.61292659  0.04189988  0.61200673    -0.04800
C1295       C  0.63695889  0.05903242  0.63639958    -0.22900
C1296       C  0.63381219  0.03541739  0.66280668     0.19300
C1297       C  0.60775036  0.49052800  0.66520145     0.16500
C1298       C  0.58267599  0.47346047  0.64085526    -0.18000
C1299       C  0.60828983  0.46584793  0.69125723    -0.19800
C1300       C  0.62755045  0.48624124  0.71656673    -0.12400
C1301       C  0.64621823  0.53162506  0.71620796     0.04300
C1302       C  0.65186723  0.05564802  0.68849279    -0.24500
H1303       H  0.11513024  0.06398958  0.59294469     0.09400
H1304       H  0.65631706  0.09175636  0.63498707     0.13000
H1305       H  0.56288891  0.44093583  0.64212603     0.12900
H1306       H  0.59166197  0.43177430  0.69248196     0.12700
H1307       H  0.62440551  0.46798452  0.73693078     0.13200
H1308       H  0.66714150  0.09037267  0.68812898     0.15200
N1309       N  0.67007694  0.04501128  0.26829741    -0.03100
C1310       C  0.64780004  0.55896104  0.24419095    -0.00500
C1311       C  0.61464362  0.58794947  0.25031405    -0.23400
C1312       C  0.61418401  0.59419824  0.27972581    -0.23600
C1313       C  0.64709503  0.56887614  0.29077806    -0.00600
H1314       H  0.58991194  0.59906512  0.23529013     0.13200
H1315       H  0.58928342  0.61142126  0.29202984     0.13200
N1316       N  0.71722869  0.03839065  0.27040173    -0.03100
C1317       C  0.74198496  0.05161840  0.29458976    -0.00500
C1318       C  0.78326691  0.07313191  0.28693832    -0.23400
C1319       C  0.78610494  0.07107294  0.25736418    -0.23600
C1320       C  0.74647185  0.04837128  0.24778620    -0.00600
H1321       H  0.81098155  0.08320496  0.30144847     0.13200
H1322       H  0.81624544  0.07962568  0.24454537     0.13200
N1323       N  0.89744338  0.70794522  0.26639115    -0.03100
C1324       C  0.86745053  0.70291755  0.24388566    -0.01500
C1325       C  0.82402207  0.69624112  0.25488094    -0.23400
C1326       C  0.82744782  0.69343220  0.28465417    -0.23600
C1327       C  0.87288585  0.69826949  0.29115159    -0.00600
H1328       H  0.79367925  0.68736771  0.24245088     0.13200
H1329       H  0.80029857  0.68199970  0.29930950     0.13200
N1330       N  0.94473536  0.72174186  0.26505743    -0.03100
C1331       C  0.97261598  0.72993626  0.28827209    -0.00500
C1332       C  0.01700980  0.73326294  0.27895202    -0.23400
C1333       C  0.01612576  0.73222612  0.24900655    -0.23600
C1334       C  0.97122890  0.72832899  0.24091206    -0.00600
H1335       H  0.04627793  0.74387861  0.29200348     0.13200
H1336       H  0.04463531  0.74212533  0.23503853     0.13200
O1337       O  0.56495354  0.99291928  0.06342447    -0.74900
O1338       O  0.01008111  0.97389703  0.09796537    -0.53800
C1339       C  0.05070891  0.98705046  0.09024822     0.78800
O1340       O  0.91924983  0.59423510  0.46920038    -0.59500
O1341       O  0.92853823  0.53866396  0.43506727    -0.52500
C1342       C  0.92096476  0.57961945  0.44252914     0.70800
O1343       O  0.93013919  0.59502121  0.07099842    -0.74100
O1344       O  0.93842020  0.53525285  0.10134407    -0.54600
C1345       C  0.93378280  0.57742229  0.09662111     0.76800
O1346       O  0.56167954  0.98684380  0.46477503    -0.59200
O1347       O  0.00334004  0.97706635  0.43363263    -0.52300
C1348       C  0.54483549  0.98365295  0.43891475     0.73400
Zr1349     Zr  0.03204273  0.98041084  0.01461352     2.54700
O1350       O  0.59048077  0.54594482  0.01294174    -0.79800
O1351       O  0.59267067  0.92912277  0.01401740    -0.93200
Zr1352     Zr  0.93291390  0.56686585  0.01940706     2.64700
O1353       O  0.99572897  0.62495819  0.01662620    -0.98200
O1354       O  0.87931220  0.62501292  0.02340490    -0.80200
O1355       O  0.98357975  0.52430062  0.04571657    -0.83600
O1356       O  0.98116501  0.52393477  0.48868166    -2.18300
O1357       O  0.94982145  0.84468338  0.46643836    -0.67000
O1358       O  0.93765301  0.90058599  0.43404682    -0.51500
C1359       C  0.94549148  0.85946933  0.44032088     0.71800
O1360       O  0.81397857  0.96862687  0.06840849    -0.59900
O1361       O  0.87089260  0.96289199  0.10101017    -0.51800
C1362       C  0.82983156  0.96907301  0.09450315     0.73600
O1363       O  0.81477318  0.98394810  0.47307829    -0.71300
O1364       O  0.86372767  0.96615140  0.43725975    -0.49900
C1365       C  0.82611494  0.98012180  0.44607716     0.75000
O1366       O  0.94537384  0.83916081  0.06369581    -0.66600
O1367       O  0.93966912  0.89545323  0.09769701    -0.53800
C1368       C  0.94339988  0.85375062  0.09023640     0.73400
Zr1369     Zr  0.94039426  0.87200623  0.01501978     2.77500
O1370       O  0.87839582  0.81271723  0.01346965    -0.97300
O1371       O  0.99513303  0.81472942  0.01531555    -0.78200
Zr1372     Zr  0.84173033  0.95596151  0.01865596     2.70100
O1373       O  0.80092023  0.88143026  0.01225218    -0.79400
O1374       O  0.76426250  0.47976920  0.02425479    -0.98500
Zr1375     Zr  0.93920369  0.96571124  0.07154936     2.21500
Zr1376     Zr  0.93501745  0.96986407  0.46272691     2.11100
O1377       O  0.89021095  0.91423089  0.48979123    -2.47200
O1378       O  0.89097972  0.91192374  0.04515282    -0.79200
O1379       O  0.98754627  0.92852427  0.48807062    -0.71400
O1380       O  0.88856881  0.51230590  0.04694746    -2.32400
O1381       O  0.98879764  0.92458045  0.04241335    -2.28600
O1382       O  0.88541307  0.51181724  0.49103077    -0.73200
H1383       H  0.99796632  0.54475920  0.47573301     0.78800
H1384       H  0.87112496  0.53018450  0.05987594     0.79900
H1385       H  0.87239357  0.89392124  0.47695554     0.82100
H1386       H  0.00866150  0.90844062  0.05443639     0.79800
H1387       H  0.84983677  0.60875318  0.01841354     0.42800
H1388       H  0.76472049  0.51113080  0.01661312     0.41800
H1389       H  0.78299612  0.87691417  0.03039329     0.41400
H1390       H  0.87268766  0.80685158  0.99249524     0.39400
H1391       H  0.02271427  0.83072432  0.02372614     0.42500
H1392       H  0.61966546  0.94769878  0.00690431     0.37300
H1393       H  0.57552278  0.57093236  0.00369092     0.43400
H1394       H  0.97789428  0.65292842  0.51003770     0.39800
H1395       H  0.89177307  0.78500138  0.02031801     0.44700
H1396       H  0.58467825  0.90750585  0.99781358     0.43500
H1397       H  0.01503927  0.61869648  0.03339594     0.43600
H1398       H  0.74664652  0.46051763  0.00982721     0.44000
C1399       C  0.95109679  0.82749048  0.41560056    -0.04900
C1400       C  0.97927999  0.79158793  0.41813664    -0.04800
C1401       C  0.98858049  0.76449250  0.39390389    -0.22900
C1402       C  0.96925663  0.77233459  0.36680085     0.19300
C1403       C  0.93922247  0.80702135  0.36437955     0.16500
C1404       C  0.93060110  0.83448636  0.38866061    -0.18000
C1405       C  0.91903777  0.81439367  0.33753920    -0.19800
C1406       C  0.92920109  0.78837005  0.31315729    -0.12400
C1407       C  0.95960779  0.75435973  0.31509191     0.04300
C1408       C  0.97977845  0.74657895  0.34201467    -0.24500
H1409       H  0.99548946  0.78552159  0.43863978     0.09400
H1410       H  0.01135972  0.73782917  0.39627595     0.13000
H1411       H  0.90836577  0.86171419  0.38649369     0.12900
H1412       H  0.89587230  0.84074114  0.33528996     0.12700
H1413       H  0.91390396  0.79550008  0.29254253     0.13200
H1414       H  0.00345362  0.72054864  0.34358683     0.15200
C1415       C  0.94684830  0.82113638  0.11425350    -0.04900
C1416       C  0.96986037  0.78156276  0.11049247    -0.04800
C1417       C  0.97829286  0.75443058  0.13443020    -0.22900
C1418       C  0.96344280  0.76627314  0.16239620     0.19300
C1419       C  0.93806206  0.80457259  0.16599398     0.16500
C1420       C  0.93010271  0.83170581  0.14201632    -0.18000
C1421       C  0.92209019  0.81597694  0.19368338    -0.19800
C1422       C  0.93175602  0.79009158  0.21777342    -0.12400
C1423       C  0.95779016  0.75256924  0.21465056     0.04300
C1424       C  0.97411221  0.74113183  0.18691461    -0.24500
H1425       H  0.98296905  0.77266344  0.08929576     0.09400
H1426       H  0.99717522  0.72475961  0.13117998     0.13000
H1427       H  0.91167314  0.86176144  0.14512735     0.12900
H1428       H  0.90261719  0.84527213  0.19677298     0.12700
H1429       H  0.91977525  0.80004382  0.23903544     0.13200
H1430       H  0.99477447  0.71257689  0.18451223     0.15200
C1431       C  0.89022525  0.67674844  0.31759625    -0.04900
C1432       C  0.92051626  0.64280356  0.31433456    -0.04800
C1433       C  0.93459171  0.61928770  0.33844598    -0.22900
C1434       C  0.91821327  0.62880156  0.36637218     0.19300
C1435       C  0.88834480  0.66343812  0.37020475     0.16500
C1436       C  0.87409359  0.68695463  0.34569746    -0.18000
C1437       C  0.87261331  0.67302291  0.39838626    -0.19800
C1438       C  0.88482091  0.64725678  0.42224860    -0.12400
C1439       C  0.91273952  0.61124488  0.41835278     0.04300
C1440       C  0.93009364  0.60305681  0.39032568    -0.24500
H1441       H  0.93259090  0.63375648  0.29289375     0.09400
H1442       H  0.95755911  0.59288318  0.33513998     0.13000
H1443       H  0.85043103  0.71288820  0.34836835     0.12900
H1444       H  0.85003944  0.69972549  0.40187554     0.12700
H1445       H  0.87093284  0.65428684  0.44354205     0.13200
H1446       H  0.95211444  0.57578893  0.38699040     0.15200
C1447       C  0.93227432  0.60557208  0.12360261    -0.04900
C1448       C  0.95839977  0.59339485  0.14736687    -0.04800
C1449       C  0.95094057  0.61018776  0.17529674    -0.22900
C1450       C  0.91761729  0.64028957  0.18017687     0.19300
C1451       C  0.89291793  0.65540974  0.15635536     0.16500
C1452       C  0.90019775  0.63772315  0.12806424    -0.18000
C1453       C  0.86063754  0.68692009  0.16156396    -0.19800
C1454       C  0.85316376  0.70317712  0.18991051    -0.12400
C1455       C  0.87749344  0.68798259  0.21362209     0.04300
C1456       C  0.90873857  0.65543319  0.20859568    -0.24500
H1457       H  0.98348360  0.56890424  0.14453100     0.09400
H1458       H  0.97073984  0.59891457  0.19319675     0.13000
H1459       H  0.87947682  0.64698417  0.11006095     0.12900
H1460       H  0.84120005  0.69898917  0.14375479     0.12700
H1461       H  0.82823924  0.72760657  0.19339783     0.13200
H1462       H  0.92658218  0.64233599  0.22683145     0.15200
C1463       C  0.73823670  0.02935001  0.32336128    -0.04900
C1464       C  0.73834071  0.98176533  0.32495822    -0.04800
C1465       C  0.75036787  0.96125305  0.35086381    -0.22900
C1466       C  0.76233232  0.98810849  0.37552984     0.19300
C1467       C  0.75797120  0.03559885  0.37489075     0.16500
C1468       C  0.75035369  0.56135876  0.34735290    -0.18000
C1469       C  0.77266108  0.56673864  0.39828434    -0.19800
C1470       C  0.78966354  0.54632991  0.42278293    -0.12400
C1471       C  0.79629521  0.99680029  0.42372564     0.04300
C1472       C  0.78193903  0.96902715  0.39990884    -0.24500
H1473       H  0.73293502  0.96086391  0.30552234     0.09400
H1474       H  0.75303674  0.92475015  0.35105117     0.13000
H1475       H  0.75178794  0.59825549  0.34621599     0.12900
H1476       H  0.77071810  0.60336796  0.39828015     0.12700
H1477       H  0.80117578  0.56766997  0.44109025     0.13200
H1478       H  0.78827308  0.93324478  0.39974425     0.15200
C1479       C  0.74663985  0.02403737  0.21945787    -0.04900
C1480       C  0.74756077  0.97639442  0.21850109    -0.04800
C1481       C  0.76014080  0.95430660  0.19281592    -0.22900
C1482       C  0.77134138  0.97958189  0.16763496     0.19300
C1483       C  0.76699437  0.02714871  0.16799357     0.16500
C1484       C  0.75580395  0.04909150  0.19400115    -0.18000
C1485       C  0.77654755  0.05253291  0.14279354    -0.19800
C1486       C  0.79314750  0.03168060  0.11799772    -0.12400
C1487       C  0.80138699  0.98540779  0.11812225     0.04300
C1488       C  0.78940400  0.95897353  0.14273004    -0.24500
H1489       H  0.74160052  0.95670766  0.23814610     0.09400
H1490       H  0.76288844  0.91781420  0.19299311     0.13000
H1491       H  0.75582135  0.08595716  0.19481942     0.12900
H1492       H  0.77297760  0.08889890  0.14263899     0.12700
H1493       H  0.80270367  0.05254784  0.09930241     0.13200
H1494       H  0.79594297  0.92325547  0.14291156     0.15200
C1495       C  0.64392445  0.05605942  0.32075716    -0.04900
C1496       C  0.64711292  0.59161397  0.34313106    -0.04800
C1497       C  0.63481387  0.58221239  0.37200801    -0.22900
C1498       C  0.61653116  0.03887373  0.37889629     0.19300
C1499       C  0.61528160  0.00282037  0.35813224     0.16500
C1500       C  0.62963152  0.01152871  0.32930698    -0.18000
C1501       C  0.59651161  0.95940114  0.36596487    -0.19800
C1502       C  0.57608812  0.95256783  0.39325333    -0.12400
C1503       C  0.57540435  0.98856180  0.41352482     0.04300
C1504       C  0.59738124  0.03123336  0.40675053    -0.24500
H1505       H  0.65627073  0.62658610  0.33697076     0.09400
H1506       H  0.63518760  0.61007297  0.38766613     0.13000
H1507       H  0.62656745  0.98445738  0.31304158     0.12900
H1508       H  0.59528185  0.93137305  0.35039958     0.12700
H1509       H  0.05943039  0.91987396  0.39854385     0.13200
H1510       H  0.59758915  0.55760388  0.42319024     0.15200
C1511       C  0.58461618  0.99869117  0.11368242    -0.04900
C1512       C  0.60789470  0.54303139  0.11394781    -0.04800
C1513       C  0.63141745  0.56043551  0.13841115    -0.22900
C1514       C  0.62971950  0.53596951  0.16447010     0.19300
C1515       C  0.60960181  0.98927728  0.16384121     0.16500
C1516       C  0.58466832  0.97276810  0.13933414    -0.18000
C1517       C  0.60867834  0.96465475  0.18994053    -0.19800
C1518       C  0.62756860  0.98465354  0.21543336    -0.12400
C1519       C  0.64701908  0.02972865  0.21529113     0.04300
C1520       C  0.64778388  0.55607815  0.19014904    -0.24500
H1521       H  0.10854053  0.56580257  0.09514908     0.09400
H1522       H  0.64941400  0.59389348  0.13729875     0.13000
H1523       H  0.56383132  0.94086492  0.14059933     0.12900
H1524       H  0.59114164  0.93098129  0.19103829     0.12700
H1525       H  0.62324868  0.96650053  0.23578542     0.13200
H1526       H  0.66166990  0.59130820  0.19005166     0.15200
N1527       N  0.67102780  0.04719072  0.76791529    -0.03100
C1528       C  0.65053850  0.55857970  0.74370613    -0.00500
C1529       C  0.61961664  0.59025132  0.74916323    -0.23400
C1530       C  0.61882647  0.59724856  0.77850271    -0.23600
C1531       C  0.64930515  0.56968520  0.79021546    -0.00600
H1532       H  0.59623176  0.60281472  0.73376001     0.13200
H1533       H  0.59492039  0.61648450  0.79031734     0.13200
N1534       N  0.71837978  0.04155780  0.76991660    -0.03100
C1535       C  0.74329806  0.05497609  0.79396993    -0.00500
C1536       C  0.78453401  0.07647982  0.78618827    -0.23400
C1537       C  0.78713164  0.07435884  0.75663992    -0.23600
C1538       C  0.74734004  0.05175072  0.74725523    -0.00600
H1539       H  0.81238449  0.08656010  0.80059558     0.13200
H1540       H  0.81711855  0.08299194  0.74369188     0.13200
N1541       N  0.88636182  0.70014807  0.76552683    -0.03100
C1542       C  0.85704934  0.69365686  0.74273403    -0.01500
C1543       C  0.81357640  0.68497974  0.75332045    -0.23400
C1544       C  0.81652262  0.68240610  0.78314938    -0.23600
C1545       C  0.86169398  0.68946835  0.79007586    -0.00600
H1546       H  0.78382288  0.67475865  0.74061362     0.13200
H1547       H  0.78955012  0.66975089  0.79758822     0.13200
N1548       N  0.93321952  0.71576062  0.76463886    -0.03100
C1549       C  0.96065062  0.72330265  0.78811524    -0.00500
C1550       C  0.00518579  0.72717854  0.77909218    -0.23400
C1551       C  0.00483762  0.72706595  0.74916391    -0.23600
C1552       C  0.96008965  0.72317685  0.74074662    -0.00600
H1553       H  0.03418377  0.73761047  0.79243420     0.13200
H1554       H  0.03358550  0.73740424  0.73550539     0.13200
O1555       O  0.56517643  0.99489022  0.56361220    -0.74900
O1556       O  0.01194601  0.97792096  0.59817189    -0.53800
C1557       C  0.05244060  0.99167222  0.59045653     0.78800
O1558       O  0.91788902  0.59539738  0.96975522    -0.59500
O1559       O  0.92796812  0.53961504  0.93592609    -0.52500
C1560       C  0.91949774  0.58037535  0.94310352     0.70800
O1561       O  0.93016952  0.59389566  0.56990557    -0.74100
O1562       O  0.93880607  0.53449149  0.60042849    -0.54600
C1563       C  0.93410163  0.57659680  0.59554854     0.76800
O1564       O  0.56179134  0.98600179  0.96375456    -0.59200
O1565       O  0.00207499  0.97374032  0.93269101    -0.52300
C1566       C  0.54500016  0.98247576  0.93787581     0.73400
Zr1567     Zr  0.03304007  0.98384107  0.51518134     2.54700
O1568       O  0.58361667  0.54988318  0.51311908    -0.79800
O1569       O  0.58793939  0.92460023  0.51594437    -0.93200
Zr1570     Zr  0.93250061  0.56509292  0.51860333     2.64700
O1571       O  0.99314025  0.62561744  0.51556614    -0.98200
O1572       O  0.87640336  0.62071225  0.52257006    -0.80200
O1573       O  0.98310284  0.52264175  0.54496925    -0.83600
O1574       O  0.98166952  0.52629638  0.98923431    -2.18300
O1575       O  0.94798952  0.84309481  0.96505247    -0.67000
O1576       O  0.93487284  0.89888977  0.93284097    -0.51500
C1577       C  0.94283283  0.85775127  0.93900146     0.71800
O1578       O  0.81472824  0.97029527  0.56899019    -0.59900
O1579       O  0.87200077  0.96652501  0.60160044    -0.51800
C1580       C  0.83083337  0.97208091  0.59498807     0.73600
O1581       O  0.81465973  0.98633567  0.97271808    -0.71300
O1582       O  0.86309157  0.96808518  0.93667654    -0.49900
C1583       C  0.82597237  0.98288351  0.94567313     0.75000
O1584       O  0.94595648  0.84172342  0.56517124    -0.66600
O1585       O  0.94173998  0.89824287  0.59920921    -0.53800
C1586       C  0.94444571  0.85632248  0.59171689     0.73400
Zr1587     Zr  0.94301884  0.87432849  0.51634334     2.77500
O1588       O  0.88412047  0.81185650  0.51549838    -0.97300
O1589       O  0.00179153  0.82121119  0.51774841    -0.78200
Zr1590     Zr  0.84284316  0.95693386  0.51960316     2.70100
O1591       O  0.80151726  0.88244452  0.51449462    -0.79400
O1592       O  0.76333666  0.47909182  0.52222551    -0.98500
Zr1593     Zr  0.94051513  0.96834278  0.57238234     2.21500
Zr1594     Zr  0.93416019  0.96815562  0.96185947     2.11100
O1595       O  0.88831987  0.91283881  0.98850992    -2.47200
O1596       O  0.89285807  0.91379418  0.54621649    -0.79200
O1597       O  0.98603711  0.92581175  0.98718437    -0.71400
O1598       O  0.88731644  0.51101843  0.54595348    -2.32400
O1599       O  0.99071481  0.92787808  0.54344945    -2.28600
O1600       O  0.88601119  0.51328852  0.99200992    -0.73200
H1601       H  0.99807459  0.54722590  0.97617511     0.78800
H1602       H  0.86974611  0.52878434  0.55888569     0.79900
H1603       H  0.87031141  0.89289896  0.97553226     0.82100
H1604       H  0.01079196  0.91218738  0.55559421     0.79800
H1605       H  0.84711409  0.60237529  0.52059771     0.42800
H1606       H  0.76421744  0.51045213  0.51453317     0.41800
H1607       H  0.80189787  0.86928127  0.53424297     0.41400
H1608       H  0.87066550  0.81269666  0.49587408     0.39400
H1609       H  0.02245229  0.83298210  0.53342718     0.42500
H1610       H  0.61650365  0.94148828  0.50983779     0.37300
H1611       H  0.57119469  0.57102052  0.52744648     0.43400
H1612       H  0.98237697  0.65365362  0.02200528     0.39800
H1613       H  0.90069191  0.78394928  0.51527520     0.44700
H1614       H  0.57970555  0.90389542  0.49931307     0.43500
H1615       H  0.00255399  0.63160131  0.53600768     0.43600
H1616       H  0.74588916  0.45992507  0.50767111     0.44000
C1617       C  0.94684760  0.82523368  0.91435358    -0.04900
C1618       C  0.97291907  0.78767564  0.91704520    -0.04800
C1619       C  0.97939466  0.75882971  0.89319279    -0.22900
C1620       C  0.95938828  0.76663050  0.86631366     0.19300
C1621       C  0.93132314  0.80297115  0.86376568     0.16500
C1622       C  0.92564565  0.83226476  0.88764166    -0.18000
C1623       C  0.91015051  0.81001785  0.83718392    -0.19800
C1624       C  0.91805560  0.78245499  0.81303761    -0.12400
C1625       C  0.94743226  0.74750299  0.81495997     0.04300
C1626       C  0.96774497  0.73946154  0.84178028    -0.24500
H1627       H  0.98945807  0.78138078  0.93739807     0.09400
H1628       H  0.00054503  0.73080711  0.89566410     0.13000
H1629       H  0.90489381  0.86068094  0.88538193     0.12900
H1630       H  0.88825265  0.83746829  0.83488852     0.12700
H1631       H  0.90247708  0.78957578  0.79250559     0.13200
H1632       H  0.99037817  0.71248584  0.84336142     0.15200
C1633       C  0.94661467  0.82297247  0.61548282    -0.04900
C1634       C  0.97128772  0.78444455  0.61200981    -0.04800
C1635       C  0.97727436  0.75573841  0.63556098    -0.22900
C1636       C  0.95815338  0.76479416  0.66283344     0.19300
C1637       C  0.93100104  0.80185145  0.66601338     0.16500
C1638       C  0.92579581  0.83088811  0.64245356    -0.18000
C1639       C  0.91063162  0.81013558  0.69297173    -0.19800
C1640       C  0.91848261  0.78305372  0.71690525    -0.12400
C1641       C  0.94695472  0.74735957  0.71433887     0.04300
C1642       C  0.96669610  0.73834685  0.68717512    -0.24500
H1643       H  0.98743553  0.77754604  0.59139016     0.09400
H1644       H  0.99758079  0.72703110  0.63260764     0.13000
H1645       H  0.90605996  0.86009055  0.64522265     0.12900
H1646       H  0.88945932  0.83820405  0.69571815     0.12700
H1647       H  0.90352882  0.79099606  0.73772109     0.13200
H1648       H  0.98898026  0.71104679  0.68516111     0.15200
C1649       C  0.87957461  0.66853016  0.81653545    -0.04900
C1650       C  0.90858554  0.63344662  0.81325429    -0.04800
C1651       C  0.92379116  0.61110928  0.83754123    -0.22900
C1652       C  0.91031984  0.62343233  0.86568622     0.19300
C1653       C  0.88172167  0.65915336  0.86947262     0.16500
C1654       C  0.86581974  0.68104974  0.84477278    -0.18000
C1655       C  0.86918639  0.67169613  0.89786833    -0.19800
C1656       C  0.88322011  0.64777909  0.92211263    -0.12400
C1657       C  0.90986585  0.61071671  0.91840873     0.04300
C1658       C  0.92409218  0.59964622  0.89000300    -0.24500
H1659       H  0.91884969  0.62276439  0.79171558     0.09400
H1660       H  0.94568175  0.58374895  0.83427309     0.13000
H1661       H  0.84322602  0.70795200  0.84742268     0.12900
H1662       H  0.84771692  0.69935515  0.90128877     0.12700
H1663       H  0.87167801  0.65706948  0.94362489     0.13200
H1664       H  0.94513376  0.57157533  0.88666621     0.15200
C1665       C  0.93197663  0.60498770  0.62231817    -0.04900
C1666       C  0.95860601  0.59416602  0.64614730    -0.04800
C1667       C  0.94923351  0.60949721  0.67418373    -0.22900
C1668       C  0.91338261  0.63664565  0.67902596     0.19300
C1669       C  0.88843582  0.65089852  0.65508041     0.16500
C1670       C  0.89779575  0.63483531  0.62672340    -0.18000
C1671       C  0.85360275  0.67955937  0.66021306    -0.19800
C1672       C  0.84396715  0.69408573  0.68863124    -0.12400
C1673       C  0.86860469  0.67985275  0.71247976     0.04300
C1674       C  0.90216051  0.64967519  0.70750398    -0.24500
H1675       H  0.98525728  0.57140671  0.64328789     0.09400
H1676       H  0.96933362  0.59911329  0.69219486     0.13000
H1677       H  0.87675089  0.64300978  0.60861720     0.12900
H1678       H  0.83385949  0.69076077  0.64228149     0.12700
H1679       H  0.81721218  0.71650476  0.69204927     0.13200
H1680       H  0.92015923  0.63705474  0.72582500     0.15200
C1681       C  0.74002332  0.03273095  0.82265000    -0.04900
C1682       C  0.74035295  0.98516995  0.82421239    -0.04800
C1683       C  0.75257546  0.96477633  0.85008206    -0.22900
C1684       C  0.76430763  0.99172648  0.87473811     0.19300
C1685       C  0.76029587  0.03926152  0.87400374     0.16500
C1686       C  0.75010193  0.55981431  0.84797656    -0.18000
C1687       C  0.77546511  0.56767744  0.89821000    -0.19800
C1688       C  0.79310915  0.54813345  0.92280511    -0.12400
C1689       C  0.79668741  0.00018012  0.92332756     0.04300
C1690       C  0.78295238  0.97255238  0.89934554    -0.24500
H1691       H  0.73480590  0.96421934  0.80480690     0.09400
H1692       H  0.75522531  0.92826870  0.85033076     0.13000
H1693       H  0.75347678  0.59660804  0.84576895     0.12900
H1694       H  0.77535972  0.60445591  0.89719175     0.12700
H1695       H  0.80679621  0.57019498  0.94020498     0.13200
H1696       H  0.78898107  0.93668926  0.89929841     0.15200
C1697       C  0.74647392  0.02840808  0.71870974    -0.04900
C1698       C  0.74381330  0.98060336  0.71710492    -0.04800
C1699       C  0.75568417  0.95851412  0.69132047    -0.22900
C1700       C  0.76975686  0.98405826  0.66677958     0.19300
C1701       C  0.76857591  0.03207506  0.66768652     0.16500
C1702       C  0.75781814  0.05389499  0.69375080    -0.18000
C1703       C  0.78094391  0.05780189  0.64305283    -0.19800
C1704       C  0.79740516  0.03659259  0.61837772    -0.12400
C1705       C  0.80262455  0.98962883  0.61816435     0.04300
C1706       C  0.78764076  0.96304126  0.64204759    -0.24500
H1707       H  0.73568374  0.96057386  0.73636246     0.09400
H1708       H  0.75580917  0.92170093  0.69098316     0.13000
H1709       H  0.76018417  0.09085229  0.69508961     0.12900
H1710       H  0.77975316  0.09452962  0.64330875     0.12700
H1711       H  0.80914266  0.05745191  0.60011117     0.13200
H1712       H  0.79181241  0.92677290  0.64187003     0.15200
C1713       C  0.64481417  0.05614226  0.82044083    -0.04900
C1714       C  0.64734872  0.59262664  0.84258715    -0.04800
C1715       C  0.63424401  0.58350797  0.87137573    -0.22900
C1716       C  0.61757729  0.03772107  0.87837834     0.19300
C1717       C  0.61635141  0.00201934  0.85736104     0.16500
C1718       C  0.63083788  0.01130351  0.82860658    -0.18000
C1719       C  0.59717861  0.95856828  0.86486244    -0.19800
C1720       C  0.57619343  0.95154360  0.89199740    -0.12400
C1721       C  0.57567349  0.98725720  0.91251075     0.04300
C1722       C  0.59820809  0.02976533  0.90610821    -0.24500
H1723       H  0.65763781  0.62740917  0.83651921     0.09400
H1724       H  0.63508965  0.61138518  0.88703993     0.13000
H1725       H  0.62785532  0.98456883  0.81211017     0.12900
H1726       H  0.59591595  0.93077307  0.84912347     0.12700
H1727       H  0.05432468  0.91819831  0.89609177     0.13200
H1728       H  0.59648657  0.55953552  0.92257346     0.15200
C1729       C  0.58481710  0.00129310  0.61376397    -0.04900
C1730       C  0.60747045  0.54134434  0.61376174    -0.04800
C1731       C  0.63145677  0.55891866  0.63799964    -0.22900
C1732       C  0.63043206  0.53456569  0.66409460     0.19300
C1733       C  0.60919616  0.99234183  0.66401227     0.16500
C1734       C  0.58438597  0.97575548  0.63954330    -0.18000
C1735       C  0.60734245  0.96819712  0.69028334    -0.19800
C1736       C  0.62630451  0.98826397  0.71568824    -0.12400
C1737       C  0.64695939  0.03284829  0.71523485     0.04300
C1738       C  0.64886839  0.55494112  0.68960534    -0.24500
H1739       H  0.11235401  0.55904005  0.59359752     0.09400
H1740       H  0.64925990  0.59245149  0.63670422     0.13000
H1741       H  0.56317213  0.94410218  0.64094058     0.12900
H1742       H  0.58905384  0.93490395  0.69155793     0.12700
H1743       H  0.62135709  0.97057214  0.73616863     0.13200
H1744       H  0.66270313  0.59018231  0.68927543     0.15200
loop_ 
_geom_bond_atom_site_label_1 
_geom_bond_atom_site_label_2 
_geom_bond_distance 
_geom_bond_site_symmetry_2 
_ccdc_geom_bond_type 
N1            N8   1.434       .  S
N1          C441   1.372       .  A
N1          C438   1.372       .  A
C2          N437   1.372       .  A
C2            C3   1.381       .  A
C2          C647   1.481       .  S
C3            C4   1.360       .  A
C3            H6   1.083       .  S
C4            C5   1.378       .  A
C4            H7   1.083       .  S
C5          N437   1.372       .  A
C5          C623   1.480       .  S
N8           C12   1.367       .  A
N8            C9   1.369       .  A
C9           C10   1.381       .  A
C9          C155   1.478       .  S
C10          C11   1.362       .  A
C10          H13   1.083       .  S
C11          C12   1.380       .  A
C11          H14   1.083       .  S
C12         C171   1.476       .  S
N15          N22   1.432       .  S
N15          C19   1.367       .  A
N15          C16   1.368       .  A
C16          C17   1.383       .  A
C16         C147   1.491       .  S
C17          C18   1.377       .  A
C17          H20   1.083       .  S
C18          C19   1.381       .  A
C18          H21   1.083       .  S
C19         C123   1.491       .  S
N22          C26   1.363       .  A
N22          C23   1.362       .  A
C23          C24   1.381       .  A
C23          C99   1.485       .  S
C24          C25   1.374       .  A
C24          H27   1.082       .  S
C25          C26   1.382       .  A
C25          H28   1.083       .  S
C26         C115   1.485       .  S
O29        Zr913   2.465       .  S
O29         C903   1.292       .  A
O30         Zr67   2.419       .  S
O30          C31   1.285       .  A
C31        C1075   1.480       .  S
C31         O901   1.292       .  A
O32        Zr262   2.495       .  S
O32          C34   1.298       .  A
O33        Zr504   2.411   1_545  S
O33          C34   1.285       .  A
C34         C131   1.498       .  S
O35         Zr44   2.492       .  S
O35          C37   1.296       .  A
O36        Zr503   2.390   1_545  S
O36          C37   1.282       .  A
C37         C139   1.484       .  S
O38       Zr1131   2.463       .  S
O38          C40   1.291       .  A
O39         Zr68   2.421       .  S
O39         C912   1.286       .  A
C40         C195   1.474       .  S
C40         O911   1.285       .  A
Zr41        O901   2.462       .  S
Zr41       O1128   2.474   1_554  S
Zr41         O73   2.384       .  S
Zr41        O483   2.376       .  S
Zr41        O702   2.377   1_554  S
Zr41        O289   2.374   1_554  S
Zr41       O1350   2.435       .  S
Zr41        O915   2.433       .  S
O42       Zr1349   2.435   1_545  S
O42          H85   0.990       .  S
O43        Zr913   2.432       .  S
O43          H84   0.990       .  S
O43          H88   0.991   1_554  S
Zr44        O250   2.468   1_554  S
Zr44         O47   2.373       .  S
Zr44         O72   2.364       .  S
Zr44        O266   2.379   1_554  S
Zr44        O292   2.375   1_554  S
Zr44         O45   2.432       .  S
Zr44         O46   2.433       .  S
O45          H89   0.991       .  S
O45         H304   0.989       .  S
O46          H79   0.990       .  S
O47        Zr477   2.375   1_545  S
O47        Zr503   2.380   1_545  S
O48        Zr695   2.377   1_545  S
O48        Zr262   2.383       .  S
O48        Zr504   2.387   1_545  S
O48          H75   0.966       .  S
O49        Zr279   2.446       .  S
O49          C51   1.288       .  A
O50         Zr68   2.434       .  S
O50          C51   1.289       .  A
C51          C91   1.486       .  S
O52         Zr64   2.452       .  S
O52          C54   1.288       .  A
O53         Zr67   2.428       .  S
O53          C54   1.285       .  A
C54         C179   1.469       .  S
O55        Zr282   2.465       .  S
O55          C57   1.290       .  A
O56         Zr68   2.416       .  S
O56          C57   1.283       .  A
C57         C163   1.472       .  S
O58         Zr61   2.453       .  S
O58          C60   1.289       .  A
O59         Zr67   2.419       .  S
O59          C60   1.285       .  A
C60         C107   1.482       .  S
Zr61        O267   2.444   1_554  S
Zr61         O70   2.382       .  S
Zr61         O73   2.377       .  S
Zr61        O287   2.384   1_554  S
Zr61        O289   2.378   1_554  S
Zr61         O62   2.435       .  S
Zr61         O63   2.436       .  S
O62          H82   0.989   1_554  S
O62          H87   0.991       .  S
O63          H83   0.990       .  S
Zr64        O273   2.454   1_554  S
Zr64         O70   2.379       .  S
Zr64        O287   2.377   1_554  S
Zr64        O728   2.371   1_554  S
Zr64        O508   2.381       .  S
Zr64         O65   2.435       .  S
Zr64        O502   2.437       .  S
O65          H81   0.990       .  S
O66        Zr500   2.439       .  S
O66          H80   0.990   1_565  S
O66          H90   0.991       .  S
Zr67        O472   2.393       .  S
Zr67         O70   2.373       .  S
Zr67         O73   2.380       .  S
Zr67        O483   2.389       .  S
Zr67        O508   2.388       .  S
Zr68        O469   2.418       .  S
Zr68         O69   2.381       .  S
Zr68         O71   2.377       .  S
Zr68        O484   2.390       .  S
Zr68        O510   2.386       .  S
O69        Zr279   2.381       .  S
O69        Zr282   2.378       .  S
O69          H77   0.965       .  S
O71        Zr259   2.383       .  S
O71        Zr279   2.380       .  S
O72        Zr500   2.377   1_545  S
O72        Zr503   2.386   1_545  S
O72          H76   0.965       .  S
O73          H78   0.967       .  S
O74        Zr262   2.377       .  S
O74        Zr718   2.369   1_545  S
O74        Zr504   2.383   1_545  S
H86         O263   0.990       .  S
C91          C92   1.408       .  A
C91          C96   1.406       .  A
C92          C93   1.401       .  A
C92         H101   1.083       .  S
C93          C94   1.403       .  A
C93         H102   1.084       .  S
C94         C100   1.408       .  A
C94          C95   1.414       .  A
C95          C97   1.401       .  A
C95          C96   1.405       .  A
C96         H103   1.084       .  S
C97          C98   1.396       .  A
C97         H104   1.084       .  S
C98          C99   1.405       .  A
C98         H105   1.082       .  S
C99         C100   1.407       .  A
C100        H106   1.084       .  S
C107        C108   1.406       .  A
C107        C112   1.407       .  A
C108        C109   1.400       .  A
C108        H117   1.083       .  S
C109        C110   1.403       .  A
C109        H118   1.084       .  S
C110        C116   1.405       .  A
C110        C111   1.413       .  A
C111        C113   1.402       .  A
C111        C112   1.404       .  A
C112        H119   1.084       .  S
C113        C114   1.397       .  A
C113        H120   1.084       .  S
C114        C115   1.405       .  A
C114        H121   1.082       .  S
C115        C116   1.407       .  A
C116        H122   1.084       .  S
C123        C124   1.404       .  A
C123        C128   1.411       .  A
C124        C125   1.398       .  A
C124        H133   1.083       .  S
C125        C126   1.403       .  A
C125        H134   1.084       .  S
C126        C132   1.407       .  A
C126        C127   1.412       .  A
C127        C129   1.407       .  A
C127        C128   1.414       .  A
C128        H135   1.084       .  S
C129        C130   1.407       .  A
C129        H136   1.083       .  S
C130        C131   1.407       .  A
C130        H137   1.083       .  S
C131        C132   1.412       .  A
C132        H138   1.084       .  S
C139        C140   1.407       .  A
C139        C144   1.410       .  A
C140        C141   1.391       .  A
C140        H149   1.084       .  S
C141        C142   1.396       .  A
C141        H150   1.084       .  S
C142        C148   1.403       .  A
C142        C143   1.415       .  A
C143        C145   1.405       .  A
C143        C144   1.416       .  A
C144        H151   1.084       .  S
C145        C146   1.405       .  A
C145        H152   1.083       .  S
C146        C147   1.408       .  A
C146        H153   1.083       .  S
C147        C148   1.403       .  A
C148        H154   1.084       .  S
C155        C156   1.403       .  A
C155        C596   1.406       .  A
C156        C157   1.400       .  A
C156        H165   1.083       .  S
C157        C158   1.404       .  A
C157        H166   1.083       .  S
C158        C164   1.407       .  A
C158        C159   1.414       .  A
C159        C597   1.403       .  A
C159        C596   1.404       .  A
C160        C591   1.406       .  A
C160        C595   1.402       .  A
C160        H167   1.085       .  S
C161        C162   1.396       .  A
C161        C595   1.402       .  A
C161        H168   1.084       .  S
C162        C599   1.403   1_545  A
C162        H169   1.084       .  S
C163        C164   1.405       .  A
C163        C598   1.403       .  A
C164        H170   1.084       .  S
C171        C172   1.404       .  A
C171        C176   1.402       .  A
C172        C173   1.401       .  A
C172        H181   1.083       .  S
C173        C174   1.404       .  A
C173        H182   1.083       .  S
C174        C180   1.409       .  A
C174        C175   1.416       .  A
C175        C177   1.400       .  A
C175        C176   1.401       .  A
C176        H183   1.085       .  S
C177        C178   1.394       .  A
C177        H184   1.084       .  S
C178        C179   1.403       .  A
C178        H185   1.084       .  S
C179        C180   1.404       .  A
C180        H186   1.084       .  S
C187        C192   1.405       .  A
C187        C624   1.405       .  A
C187        C441   1.479       .  S
C188        C189   1.397       .  A
C188        C623   1.405       .  A
C188        H197   1.083       .  S
C189        C626   1.402       .  A
C189        H198   1.083       .  S
C190        C196   1.408       .  A
C190        C191   1.416       .  A
C190        C625   1.402       .  A
C191        C193   1.403       .  A
C191        C192   1.408       .  A
C192        H199   1.084       .  S
C193        C194   1.399       .  A
C193        H200   1.084       .  S
C194        C195   1.404       .  A
C194       H1073   1.084       .  S
C195        C196   1.404       .  A
C196        H638   1.085       .  S
H201       C1066   1.083       .  S
H202        C632   1.084       .  S
C203        C208   1.411       .  A
C203        C640   1.405       .  A
C203        C903   1.486       .  S
C204        C205   1.398       .  A
C204        C639   1.404   1_545  A
C204       H1085   1.083       .  S
C205        C206   1.402       .  A
C205        H214   1.084       .  S
C206        C212   1.403       .  A
C206        C643   1.413   1_545  A
C207        C209   1.406       .  A
C207        C208   1.411       .  A
C207        C642   1.413       .  A
C208        H215   1.084       .  S
C209        C210   1.403       .  A
C209        H216   1.083       .  S
C210        C211   1.403       .  A
C210        H217   1.083       .  S
C211        C648   1.406       .  A
C211        C438   1.480       .  S
C212        C647   1.406       .  A
C212        H218   1.085       .  S
H213       C1076   1.083       .  S
N219        N226   1.434       .  S
N219        C659   1.372       .  A
N219        C656   1.373       .  A
C220        N655   1.372       .  A
C220        C221   1.381       .  A
C220        C865   1.480       .  S
C221        C222   1.362       .  A
C221        H224   1.083       .  S
C222        C223   1.379       .  A
C222        H225   1.083       .  S
C223        N655   1.371       .  A
C223        C841   1.478       .  S
N226        C230   1.368       .  A
N226        C227   1.369       .  A
C227        C228   1.380       .  A
C227        C373   1.477       .  S
C228        C229   1.360       .  A
C228        H231   1.083       .  S
C229        C230   1.380       .  A
C229        H232   1.083       .  S
C230        C389   1.475       .  S
N233        N240   1.432       .  S
N233        C237   1.367       .  A
N233        C234   1.367       .  A
C234        C235   1.383       .  A
C234        C365   1.486       .  S
C235        C236   1.375       .  A
C235        H238   1.083       .  S
C236        C237   1.381       .  A
C236        H239   1.083       .  S
C237        C341   1.490       .  S
N240        C244   1.363       .  A
N240        C241   1.360       .  A
C241        C242   1.380       .  A
C241        C317   1.483       .  S
C242        C243   1.375       .  A
C242        H245   1.082       .  S
C243        C244   1.384       .  A
C243        H246   1.083       .  S
C244        C333   1.482       .  S
O247      Zr1131   2.465       .  S
O247       C1121   1.292       .  A
O248       Zr285   2.421       .  S
O248        C249   1.285       .  A
C249       C1293   1.481       .  S
C249       O1119   1.292       .  A
O250        C252   1.293       .  A
O251       Zr722   2.413   1_545  S
O251        C252   1.286       .  A
C252        C349   1.485       .  S
O253       Zr262   2.508       .  S
O253        C255   1.299       .  A
O254       Zr721   2.378   1_545  S
O254        C255   1.280       .  A
C255        C357   1.489       .  S
O256       Zr913   2.469   1_556  S
O256        C258   1.291       .  A
O257       Zr286   2.416       .  S
O257       C1130   1.284       .  A
C258        C413   1.480       .  S
C258       O1129   1.286       .  A
Zr259      O1119   2.464       .  S
Zr259       O910   2.465       .  S
Zr259       O701   2.371       .  S
Zr259       O484   2.375       .  S
Zr259       O291   2.380       .  S
Zr259      O1568   2.434       .  S
Zr259      O1133   2.435       .  S
O260      Zr1567   2.437   1_545  S
O260        H303   0.990       .  S
O261      Zr1131   2.435       .  S
O261        H302   0.990       .  S
O261        H306   0.990       .  S
Zr262       O265   2.382       .  S
Zr262       O290   2.365       .  S
Zr262       O263   2.434       .  S
Zr262       O264   2.434       .  S
O263        H307   0.990       .  S
O264        H297   0.991       .  S
O265       Zr695   2.377   1_545  S
O265       Zr721   2.387   1_545  S
O266       Zr477   2.374   1_546  S
O266       Zr722   2.387   1_545  S
O266        H293   0.966       .  S
O267        C269   1.288       .  A
O268       Zr286   2.422       .  S
O268        C269   1.287       .  A
C269        C309   1.480       .  S
O270       Zr282   2.467       .  S
O270        C272   1.291       .  A
O271       Zr285   2.421       .  S
O271        C272   1.284       .  A
C272        C397   1.469       .  S
O273        C275   1.287       .  A
O274       Zr286   2.422       .  S
O274        C275   1.284       .  A
C275        C381   1.470       .  S
O276       Zr279   2.453       .  S
O276        C278   1.289       .  A
O277       Zr285   2.411       .  S
O277        C278   1.285       .  A
C278        C325   1.481       .  S
Zr279       O288   2.383       .  S
Zr279       O291   2.379       .  S
Zr279       O280   2.434       .  S
Zr279       O281   2.433       .  S
O280        H300   0.989       .  S
O280        H305   0.991       .  S
O281        H301   0.990       .  S
Zr282       O288   2.379       .  S
Zr282       O510   2.372       .  S
Zr282       O726   2.377       .  S
Zr282       O283   2.433       .  S
Zr282       O720   2.437       .  S
O283        H299   0.990       .  S
O284       Zr718   2.435       .  S
O284        H298   0.990   1_565  S
O284        H308   0.991       .  S
Zr285       O690   2.386       .  S
Zr285       O701   2.383       .  S
Zr285       O288   2.373       .  S
Zr285       O726   2.387       .  S
Zr285       O291   2.377       .  S
Zr286       O687   2.401       .  S
Zr286       O702   2.391       .  S
Zr286       O287   2.379       .  S
Zr286       O289   2.374       .  S
Zr286       O728   2.385       .  S
O287        H295   0.965       .  S
O290       Zr718   2.376   1_545  S
O290       Zr721   2.389   1_545  S
O290        H294   0.965       .  S
O291        H296   0.966       .  S
O292       Zr500   2.368   1_546  S
O292       Zr722   2.381   1_545  S
C309        C310   1.406       .  A
C309        C314   1.405       .  A
C310        C311   1.399       .  A
C310        H319   1.083       .  S
C311        C312   1.402       .  A
C311        H320   1.084       .  S
C312        C318   1.405       .  A
C312        C313   1.415       .  A
C313        C315   1.400       .  A
C313        C314   1.403       .  A
C314        H321   1.084       .  S
C315        C316   1.395       .  A
C315        H322   1.084       .  S
C316        C317   1.405       .  A
C316        H323   1.082       .  S
C317        C318   1.405       .  A
C318        H324   1.084       .  S
C325        C326   1.406       .  A
C325        C330   1.405       .  A
C326        C327   1.403       .  A
C326        H335   1.083       .  S
C327        C328   1.405       .  A
C327        H336   1.084       .  S
C328        C334   1.408       .  A
C328        C329   1.414       .  A
C329        C331   1.400       .  A
C329        C330   1.399       .  A
C330        H337   1.085       .  S
C331        C332   1.393       .  A
C331        H338   1.084       .  S
C332        C333   1.404       .  A
C332        H339   1.082       .  S
C333        C334   1.408       .  A
C334        H340   1.084       .  S
C341        C342   1.405       .  A
C341        C346   1.410       .  A
C342        C343   1.397       .  A
C342        H351   1.083       .  S
C343        C344   1.402       .  A
C343        H352   1.084       .  S
C344        C350   1.404       .  A
C344        C345   1.413       .  A
C345        C347   1.406       .  A
C345        C346   1.410       .  A
C346        H353   1.084       .  S
C347        C348   1.404       .  A
C347        H354   1.083       .  S
C348        C349   1.406       .  A
C348        H355   1.083       .  S
C349        C350   1.407       .  A
C350        H356   1.085       .  S
C357        C358   1.410       .  A
C357        C362   1.410       .  A
C358        C359   1.390       .  A
C358        H367   1.084       .  S
C359        C360   1.395       .  A
C359        H368   1.084       .  S
C360        C366   1.403       .  A
C360        C361   1.417       .  A
C361        C363   1.406       .  A
C361        C362   1.418       .  A
C362        H369   1.084       .  S
C363        C364   1.405       .  A
C363        H370   1.083       .  S
C364        C365   1.407       .  A
C364        H371   1.083       .  S
C365        C366   1.401       .  A
C366        H372   1.085       .  S
C373        C374   1.403       .  A
C373        C814   1.404       .  A
C374        C375   1.401       .  A
C374        H383   1.083       .  S
C375        C376   1.405       .  A
C375        H384   1.083       .  S
C376        C382   1.408       .  A
C376        C377   1.415       .  A
C377        C815   1.401       .  A
C377        C814   1.401       .  A
C378        C809   1.406       .  A
C378        C813   1.402       .  A
C378        H385   1.085       .  S
C379        C813   1.403       .  A
C379        C380   1.397       .  A
C379        H386   1.084       .  S
C380        C817   1.403   1_545  A
C380        H387   1.084       .  S
C381        C816   1.402       .  A
C381        C382   1.405       .  A
C382        H388   1.084       .  S
C389        C390   1.404       .  A
C389        C394   1.401       .  A
C390        C391   1.403       .  A
C390        H399   1.083       .  S
C391        C392   1.405       .  A
C391        H400   1.083       .  S
C392        C398   1.410       .  A
C392        C393   1.416       .  A
C393        C395   1.399       .  A
C393        C394   1.400       .  A
C394        H401   1.085       .  S
C395        C396   1.393       .  A
C395        H402   1.084       .  S
C396        C397   1.403       .  A
C396        H403   1.084       .  S
C397        C398   1.406       .  A
C398        H404   1.084       .  S
C405        C842   1.405       .  A
C405        C410   1.405       .  A
C405        C659   1.481       .  S
C406        C841   1.404       .  A
C406        C407   1.398       .  A
C406        H415   1.083       .  S
C407        C844   1.402       .  A
C407        H416   1.083       .  S
C408        C843   1.403       .  A
C408        C414   1.410       .  A
C408        C409   1.416       .  A
C409        C411   1.402       .  A
C409        C410   1.409       .  A
C410        H417   1.084       .  S
C411        C412   1.399       .  A
C411        H418   1.084       .  S
C412        C413   1.404       .  A
C412       H1291   1.084       .  S
C413        C414   1.406       .  A
C414        H856   1.084       .  S
H419       C1284   1.084       .  S
H420        C850   1.085       .  S
C421        C858   1.404       .  A
C421        C426   1.411       .  A
C421       C1121   1.485       .  S
C422        C857   1.405       .  A
C422        C423   1.400       .  A
C422       H1303   1.083       .  S
C423        C424   1.403       .  A
C423        H432   1.084       .  S
C424        C430   1.406       .  A
C424        C861   1.413   1_545  A
C425        C860   1.413       .  A
C425        C427   1.406       .  A
C425        C426   1.411       .  A
C426        H433   1.084       .  S
C427        C428   1.404       .  A
C427        H434   1.083       .  S
C428        C429   1.404       .  A
C428        H435   1.083       .  S
C429        C866   1.407       .  A
C429        C656   1.482       .  S
C430        C865   1.407       .  A
C430        H436   1.084       .  S
H431       C1294   1.083       .  S
N437        N444   1.434       .  S
C438        C439   1.380       .  A
C439        C440   1.361       .  A
C439        H442   1.083       .  S
C440        C441   1.379       .  A
C440        H443   1.083       .  S
N444        C448   1.369       .  A
N444        C445   1.370       .  A
C445        C446   1.380       .  A
C445        C591   1.477       .  S
C446        C447   1.359       .  A
C446        H449   1.083       .  S
C447        C448   1.378       .  A
C447        H450   1.083       .  S
C448        C607   1.475       .  S
N451        N458   1.433       .  S
N451        C455   1.369       .  A
N451        C452   1.367       .  A
C452        C453   1.383       .  A
C452        C583   1.490       .  S
C453        C454   1.376       .  A
C453        H456   1.083       .  S
C454        C455   1.381       .  A
C454        H457   1.083       .  S
C455        C559   1.493       .  S
N458        C462   1.363       .  A
N458        C459   1.360       .  A
C459        C460   1.381       .  A
C459        C535   1.478       .  S
C460        C461   1.374       .  A
C460        H463   1.083       .  S
C461        C462   1.383       .  A
C461        H464   1.083       .  S
C462        C551   1.481       .  S
O465      Zr1349   2.459       .  S
O465       C1339   1.291       .  A
O466       Zr503   2.428       .  S
O466        C467   1.287       .  A
C467       C1511   1.484       .  S
C467       O1337   1.292       .  A
O468       Zr698   2.485       .  S
O468        C470   1.297       .  A
O469        C470   1.287       .  A
C470        C567   1.495       .  S
O471       Zr480   2.505       .  S
O471        C473   1.299       .  A
O472        C473   1.282       .  A
C473        C575   1.491       .  S
O474      Zr1567   2.467       .  S
O474        C476   1.291       .  A
O475       Zr504   2.416       .  S
O475       C1348   1.285       .  A
C476        C631   1.477       .  S
C476       O1347   1.285       .  A
Zr477      O1337   2.462       .  S
Zr477      O1564   2.468   1_554  S
Zr477       O725   2.377   1_554  S
Zr477       O509   2.383       .  S
Zr477       O914   2.436   1_565  S
Zr477      O1351   2.433       .  S
O478       Zr913   2.436       .  S
O478        H521   0.990       .  S
O479      Zr1349   2.433       .  S
O479        H520   0.990       .  S
O479        H524   0.990       .  S
Zr480       O686   2.490   1_554  S
Zr480       O702   2.382   1_554  S
Zr480       O483   2.378       .  S
Zr480       O508   2.368       .  S
Zr480       O728   2.380   1_554  S
Zr480       O481   2.435       .  S
Zr480       O482   2.436       .  S
O481        H740   0.990       .  S
O481        H525   0.991       .  S
O482        H515   0.991       .  S
O484       Zr698   2.382       .  S
O484        H511   0.966       .  S
O485       Zr715   2.438       .  S
O485        C487   1.288       .  A
O486       Zr504   2.421       .  S
O486        C487   1.287       .  A
C487        C527   1.477       .  S
O488       Zr500   2.459       .  S
O488        C490   1.290       .  A
O489       Zr503   2.423       .  S
O489        C490   1.285       .  A
C490        C615   1.469       .  S
O491       Zr718   2.456       .  S
O491        C493   1.287       .  A
O492       Zr504   2.414       .  S
O492        C493   1.283       .  A
C493        C599   1.468       .  S
O494       Zr497   2.459       .  S
O494        C496   1.291       .  A
O495       Zr503   2.402       .  S
O495        C496   1.283       .  A
C496        C543   1.479       .  S
Zr497       O703   2.445   1_554  S
Zr497       O723   2.386   1_554  S
Zr497       O506   2.379       .  S
Zr497       O509   2.376       .  S
Zr497       O725   2.379   1_554  S
Zr497       O498   2.435       .  S
Zr497       O499   2.435       .  S
O498        H518   0.989   1_554  S
O498        H523   0.991       .  S
O499        H519   0.990       .  S
Zr500       O709   2.462   1_554  S
Zr500       O506   2.379       .  S
Zr500       O723   2.379   1_554  S
Zr500       O501   2.436       .  S
O501        H517   0.990       .  S
O502        H516   0.990       .  S
O502        H526   0.991       .  S
Zr503       O506   2.373       .  S
Zr503       O509   2.378       .  S
Zr504       O505   2.383       .  S
Zr504       O507   2.374       .  S
O505       Zr715   2.384       .  S
O505       Zr718   2.374       .  S
O505        H513   0.966       .  S
O507       Zr695   2.372       .  S
O507       Zr715   2.382       .  S
O508        H512   0.965       .  S
O509        H514   0.966       .  S
O510       Zr698   2.375       .  S
H522        O699   0.990       .  S
C527        C528   1.406       .  A
C527        C532   1.403       .  A
C528        C529   1.399       .  A
C528        H537   1.083       .  S
C529        C530   1.402       .  A
C529        H538   1.084       .  S
C530        C536   1.405       .  A
C530        C531   1.415       .  A
C531        C533   1.399       .  A
C531        C532   1.400       .  A
C532        H539   1.085       .  S
C533        C534   1.392       .  A
C533        H540   1.084       .  S
C534        C535   1.405       .  A
C534        H541   1.082       .  S
C535        C536   1.404       .  A
C536        H542   1.084       .  S
C543        C544   1.405       .  A
C543        C548   1.407       .  A
C544        C545   1.400       .  A
C544        H553   1.083       .  S
C545        C546   1.404       .  A
C545        H554   1.083       .  S
C546        C552   1.405       .  A
C546        C547   1.413       .  A
C547        C549   1.401       .  A
C547        C548   1.400       .  A
C548        H555   1.085       .  S
C549        C550   1.394       .  A
C549        H556   1.084       .  S
C550        C551   1.404       .  A
C550        H557   1.082       .  S
C551        C552   1.406       .  A
C552        H558   1.084       .  S
C559        C560   1.403       .  A
C559        C564   1.413       .  A
C560        C561   1.397       .  A
C560        H569   1.083       .  S
C561        C562   1.402       .  A
C561        H570   1.083       .  S
C562        C568   1.407       .  A
C562        C563   1.413       .  A
C563        C565   1.407       .  A
C563        C564   1.415       .  A
C564        H571   1.084       .  S
C565        C566   1.406       .  A
C565        H572   1.083       .  S
C566        C567   1.407       .  A
C566        H573   1.083       .  S
C567        C568   1.410       .  A
C568        H574   1.084       .  S
C575        C576   1.409       .  A
C575        C580   1.410       .  A
C576        C577   1.393       .  A
C576        H585   1.084       .  S
C577        C578   1.397       .  A
C577        H586   1.084       .  S
C578        C584   1.405       .  A
C578        C579   1.416       .  A
C579        C581   1.405       .  A
C579        C580   1.417       .  A
C580        H587   1.084       .  S
C581        C582   1.405       .  A
C581        H588   1.083       .  S
C582        C583   1.407       .  A
C582        H589   1.083       .  S
C583        C584   1.404       .  A
C584        H590   1.084       .  S
C591        C592   1.403   1_545  A
C592        C593   1.399       .  A
C592        H601   1.083       .  S
C593        C594   1.403       .  A
C593        H602   1.083       .  S
C594        C600   1.406       .  A
C594        C595   1.415   1_565  A
C596        H603   1.085       .  S
C597        C598   1.398       .  A
C597        H604   1.084       .  S
C598        H605   1.084       .  S
C599        C600   1.403       .  A
C600        H606   1.084       .  S
C607        C608   1.404   1_545  A
C607        C612   1.402       .  A
C608        C609   1.402       .  A
C608        H617   1.083       .  S
C609        C610   1.405       .  A
C609        H618   1.083       .  S
C610        C616   1.409       .  A
C610        C611   1.415   1_565  A
C611        C613   1.400       .  A
C611        C612   1.401       .  A
C612        H619   1.085       .  S
C613        C614   1.394       .  A
C613        H620   1.084       .  S
C614        C615   1.403   1_545  A
C614        H621   1.084       .  S
C615        C616   1.405       .  A
C616        H622   1.084       .  S
C623        C628   1.405       .  A
C624        C625   1.398       .  A
C624        H633   1.083       .  S
C625        H634   1.084       .  S
C626        C632   1.408       .  A
C626        C627   1.416       .  A
C627        C629   1.403   1_545  A
C627        C628   1.409       .  A
C628        H635   1.084   1_545  S
C629        C630   1.400       .  A
C629        H636   1.084       .  S
C630        C631   1.405       .  A
C630       H1509   1.084       .  S
C631        C632   1.404   1_565  A
H637       C1502   1.084       .  S
C639        C644   1.410       .  A
C639       C1339   1.483       .  S
C640        C641   1.399       .  A
C640       H1521   1.083       .  S
C641        C642   1.402       .  A
C641        H650   1.084       .  S
C642        C648   1.405       .  A
C643        C645   1.406       .  A
C643        C644   1.411       .  A
C644        H651   1.084       .  S
C645        C646   1.404       .  A
C645        H652   1.083       .  S
C646        C647   1.403   1_565  A
C646        H653   1.083       .  S
C648        H654   1.085       .  S
H649       C1512   1.083       .  S
N655        N662   1.434       .  S
C656        C657   1.380       .  A
C657        C658   1.360       .  A
C657        H660   1.083       .  S
C658        C659   1.378       .  A
C658        H661   1.083       .  S
N662        C666   1.369       .  A
N662        C663   1.370       .  A
C663        C664   1.380       .  A
C663        C809   1.479       .  S
C664        C665   1.360       .  A
C664        H667   1.083       .  S
C665        C666   1.379       .  A
C665        H668   1.083       .  S
C666        C825   1.476       .  S
N669        N676   1.431       .  S
N669        C673   1.364       .  A
N669        C670   1.368       .  A
C670        C671   1.383       .  A
C670        C801   1.489       .  S
C671        C672   1.376       .  A
C671        H674   1.083       .  S
C672        C673   1.381       .  A
C672        H675   1.082       .  S
C673        C777   1.486       .  S
N676        C680   1.361       .  A
N676        C677   1.362       .  A
C677        C678   1.382       .  A
C677        C753   1.485       .  S
C678        C679   1.375       .  A
C678        H681   1.083       .  S
C679        C680   1.383       .  A
C679        H682   1.083       .  S
C680        C769   1.482       .  S
O683      Zr1567   2.457       .  S
O683       C1557   1.291       .  A
O684       Zr721   2.430       .  S
O684        C685   1.287       .  A
C685       C1729   1.481   1_565  S
C685       O1555   1.290       .  A
O686        C688   1.297       .  A
O687        C688   1.283       .  A
C688        C785   1.493       .  S
O689       Zr698   2.502       .  S
O689        C691   1.299       .  A
O690        C691   1.281       .  A
C691        C793   1.486       .  S
O692      Zr1349   2.464   1_556  S
O692        C694   1.291       .  A
O693       Zr722   2.415       .  S
O693       C1566   1.285       .  A
C694        C849   1.473       .  S
C694       O1565   1.284       .  A
Zr695      O1555   2.453       .  S
Zr695      O1346   2.464       .  S
Zr695       O727   2.383       .  S
Zr695      O1132   2.433   1_565  S
Zr695      O1569   2.433       .  S
O696      Zr1131   2.433       .  S
O696        H739   0.990       .  S
O697      Zr1567   2.433       .  S
O697        H738   0.989       .  S
O697        H742   0.991       .  S
Zr698       O701   2.378       .  S
Zr698       O726   2.363       .  S
Zr698       O699   2.434       .  S
Zr698       O700   2.434       .  S
O699        H743   0.991       .  S
O700        H733   0.991       .  S
O702        H729   0.966       .  S
O703        C705   1.289       .  A
O704       Zr722   2.426       .  S
O704        C705   1.287       .  A
C705        C745   1.483       .  S
O706       Zr718   2.451       .  S
O706        C708   1.288       .  A
O707       Zr721   2.424       .  S
O707        C708   1.285       .  A
C708        C833   1.467       .  S
O709        C711   1.288       .  A
O710       Zr722   2.416       .  S
O710        C711   1.283       .  A
C711        C817   1.470       .  S
O712       Zr715   2.456       .  S
O712        C714   1.290       .  A
O713       Zr721   2.420       .  S
O713        C714   1.285       .  A
C714        C761   1.484       .  S
Zr715       O724   2.374       .  S
Zr715       O727   2.375       .  S
Zr715       O716   2.434       .  S
Zr715       O717   2.436       .  S
O716        H736   0.990       .  S
O716        H741   0.991       .  S
O717        H737   0.990       .  S
Zr718       O724   2.380       .  S
Zr718       O719   2.434       .  S
O719        H735   0.990       .  S
O720        H734   0.990       .  S
O720        H744   0.991       .  S
Zr721       O724   2.371       .  S
Zr721       O727   2.372       .  S
Zr722       O723   2.382       .  S
Zr722       O725   2.373       .  S
O723        H731   0.964       .  S
O726        H730   0.965       .  S
O727        H732   0.967       .  S
C745        C746   1.407       .  A
C745        C750   1.406       .  A
C746        C747   1.400       .  A
C746        H755   1.083       .  S
C747        C748   1.403       .  A
C747        H756   1.083       .  S
C748        C754   1.408       .  A
C748        C749   1.414       .  A
C749        C751   1.400       .  A
C749        C750   1.404       .  A
C750        H757   1.084       .  S
C751        C752   1.395       .  A
C751        H758   1.084       .  S
C752        C753   1.405       .  A
C752        H759   1.082       .  S
C753        C754   1.407       .  A
C754        H760   1.084       .  S
C761        C762   1.406       .  A
C761        C766   1.408       .  A
C762        C763   1.400       .  A
C762        H771   1.083       .  S
C763        C764   1.402       .  A
C763        H772   1.084       .  S
C764        C770   1.405       .  A
C764        C765   1.414       .  A
C765        C767   1.402       .  A
C765        C766   1.404       .  A
C766        H773   1.084       .  S
C767        C768   1.396       .  A
C767        H774   1.084       .  S
C768        C769   1.405       .  A
C768        H775   1.082       .  S
C769        C770   1.405       .  A
C770        H776   1.084       .  S
C777        C778   1.404       .  A
C777        C782   1.409       .  A
C778        C779   1.397       .  A
C778        H787   1.084       .  S
C779        C780   1.403       .  A
C779        H788   1.084       .  S
C780        C786   1.404       .  A
C780        C781   1.412       .  A
C781        C783   1.406       .  A
C781        C782   1.411       .  A
C782        H789   1.084       .  S
C783        C784   1.405       .  A
C783        H790   1.083       .  S
C784        C785   1.406       .  A
C784        H791   1.083       .  S
C785        C786   1.412       .  A
C786        H792   1.084       .  S
C793        C794   1.409       .  A
C793        C798   1.409       .  A
C794        C795   1.392       .  A
C794        H803   1.084       .  S
C795        C796   1.396       .  A
C795        H804   1.084       .  S
C796        C802   1.404       .  A
C796        C797   1.416       .  A
C797        C799   1.405       .  A
C797        C798   1.416       .  A
C798        H805   1.084       .  S
C799        C800   1.404       .  A
C799        H806   1.083       .  S
C800        C801   1.408       .  A
C800        H807   1.083       .  S
C801        C802   1.403       .  A
C802        H808   1.084       .  S
C809        C810   1.403   1_545  A
C810        C811   1.401       .  A
C810        H819   1.083       .  S
C811        C812   1.404       .  A
C811        H820   1.083       .  S
C812        C818   1.406       .  A
C812        C813   1.414   1_565  A
C814        H821   1.085       .  S
C815        C816   1.395       .  A
C815        H822   1.084       .  S
C816        H823   1.084       .  S
C817        C818   1.404       .  A
C818        H824   1.084       .  S
C825        C826   1.404   1_545  A
C825        C830   1.402       .  A
C826        C827   1.401       .  A
C826        H835   1.083       .  S
C827        C828   1.404       .  A
C827        H836   1.083       .  S
C828        C834   1.409       .  A
C828        C829   1.416   1_565  A
C829        C831   1.400       .  A
C829        C830   1.401       .  A
C830        H837   1.085       .  S
C831        C832   1.393       .  A
C831        H838   1.084       .  S
C832        C833   1.403   1_545  A
C832        H839   1.084       .  S
C833        C834   1.404       .  A
C834        H840   1.084       .  S
C841        C846   1.404       .  A
C842        C843   1.399       .  A
C842        H851   1.083       .  S
C843        H852   1.083       .  S
C844        C850   1.408       .  A
C844        C845   1.417       .  A
C845        C847   1.402   1_545  A
C845        C846   1.407       .  A
C846        H853   1.084   1_545  S
C847        C848   1.398       .  A
C847        H854   1.084       .  S
C848        C849   1.404       .  A
C848       H1727   1.084       .  S
C849        C850   1.404   1_565  A
H855       C1720   1.084       .  S
C857        C862   1.409   1_545  A
C857       C1557   1.484   1_545  S
C858        C859   1.399       .  A
C858       H1739   1.083       .  S
C859        C860   1.402       .  A
C859        H868   1.084       .  S
C860        C866   1.405       .  A
C861        C863   1.405       .  A
C861        C862   1.409       .  A
C862        H869   1.084       .  S
C863        C864   1.402       .  A
C863        H870   1.083       .  S
C864        C865   1.403   1_565  A
C864        H871   1.083       .  S
C866        H872   1.084       .  S
H867       C1730   1.083       .  S
N873        N880   1.434       .  S
N873       C1313   1.371       .  A
N873       C1310   1.371       .  A
C874       N1309   1.373       .  A
C874        C875   1.381       .  A
C874       C1519   1.483       .  S
C875        C876   1.361       .  A
C875        H878   1.083       .  S
C876        C877   1.379       .  A
C876        H879   1.083       .  S
C877       N1309   1.372       .  A
C877       C1495   1.480       .  S
N880        C884   1.366       .  A
N880        C881   1.367       .  A
C881        C882   1.380       .  A
C881       C1027   1.474       .  S
C882        C883   1.360       .  A
C882        H885   1.083       .  S
C883        C884   1.380       .  A
C883        H886   1.083       .  S
C884       C1043   1.472       .  S
N887        N894   1.432       .  S
N887        C891   1.365       .  A
N887        C888   1.368       .  A
C888        C889   1.383       .  A
C888       C1019   1.490       .  S
C889        C890   1.375       .  A
C889        H892   1.083       .  S
C890        C891   1.381       .  A
C890        H893   1.082       .  S
C891        C995   1.488       .  S
N894        C898   1.363       .  A
N894        C895   1.363       .  A
C895        C896   1.381   1_655  A
C895        C971   1.485       .  S
C896        C897   1.373       .  A
C896        H899   1.083       .  S
C897        C898   1.383   1_455  A
C897        H900   1.083       .  S
C898        C987   1.483       .  S
O902       Zr939   2.430   1_455  S
O902        C903   1.287       .  A
O904      Zr1134   2.489       .  S
O904        C906   1.297       .  A
O905      Zr1376   2.405   1_545  S
O905        C906   1.284       .  A
C906       C1003   1.493       .  S
O907       Zr916   2.495       .  S
O907        C909   1.297       .  A
O908      Zr1375   2.387   1_545  S
O908        C909   1.281       .  A
C909       C1011   1.483       .  S
O910        C912   1.291       .  A
O911       Zr940   2.416   1_455  S
C912       C1067   1.476       .  S
Zr913      O1355   2.371   1_455  S
Zr913      O1574   2.379   1_454  S
Zr913      O1161   2.381   1_454  S
Zr913       O945   2.386   1_455  S
O914        H957   0.990   1_554  S
O915        H956   0.990       .  S
O915        H960   0.990   1_554  S
Zr916      O1122   2.481   1_554  S
Zr916      O1138   2.378   1_554  S
Zr916       O919   2.374       .  S
Zr916       O944   2.366       .  S
Zr916      O1164   2.375   1_554  S
Zr916       O917   2.434       .  S
Zr916       O918   2.433       .  S
O917       H1176   0.989       .  S
O917        H961   0.991   1_655  S
O918        H951   0.991       .  S
O919      Zr1349   2.373   1_645  S
O919      Zr1375   2.380   1_545  S
O920      Zr1567   2.380   1_645  S
O920      Zr1134   2.383       .  S
O920      Zr1376   2.389   1_545  S
O920        H947   0.966       .  S
O921      Zr1151   2.449       .  S
O921        C923   1.289       .  A
O922       Zr940   2.430       .  S
O922        C923   1.288       .  A
C923        C963   1.485       .  S
O924       Zr936   2.453       .  S
O924        C926   1.288       .  A
O925       Zr939   2.423       .  S
O925        C926   1.285       .  A
C926       C1051   1.466       .  S
O927      Zr1154   2.461       .  S
O927        C929   1.288       .  A
O928       Zr940   2.418       .  S
O928        C929   1.283       .  A
C929       C1035   1.470       .  S
O930       Zr933   2.449       .  S
O930        C932   1.288       .  A
O931       Zr939   2.420       .  S
O931        C932   1.285       .  A
C932        C979   1.480       .  S
Zr933      O1139   2.447   1_554  S
Zr933      O1159   2.385   1_554  S
Zr933       O942   2.380       .  S
Zr933       O945   2.381       .  S
Zr933      O1161   2.380   1_554  S
Zr933       O934   2.437       .  S
Zr933       O935   2.434       .  S
O934        H954   0.989   1_554  S
O934        H959   0.991       .  S
O935        H955   0.990   1_655  S
Zr936      O1145   2.460   1_554  S
Zr936       O942   2.380       .  S
Zr936      O1159   2.381   1_554  S
Zr936      O1600   2.368   1_554  S
Zr936      O1380   2.377       .  S
Zr936       O937   2.434       .  S
Zr936      O1374   2.440       .  S
O937        H953   0.990       .  S
O938      Zr1372   2.437       .  S
O938        H952   0.990   1_565  S
O938        H962   0.991       .  S
Zr939      O1344   2.381       .  S
Zr939      O1355   2.386       .  S
Zr939       O942   2.373       .  S
Zr939      O1380   2.391       .  S
Zr939       O945   2.375       .  S
Zr940      O1341   2.414       .  S
Zr940      O1356   2.392       .  S
Zr940       O941   2.382       .  S
Zr940       O943   2.377       .  S
Zr940      O1382   2.382       .  S
O941      Zr1151   2.386       .  S
O941      Zr1154   2.381       .  S
O941        H949   0.964       .  S
O943      Zr1131   2.381   1_655  S
O943      Zr1151   2.378       .  S
O944      Zr1372   2.379   1_545  S
O944      Zr1375   2.385   1_545  S
O944        H948   0.965       .  S
O945        H950   0.966   1_655  S
O946      Zr1134   2.375       .  S
O946      Zr1590   2.367   1_545  S
O946      Zr1376   2.382   1_545  S
H958       O1135   0.990       .  S
C963        C964   1.407       .  A
C963        C968   1.406       .  A
C964        C965   1.401       .  A
C964        H973   1.083       .  S
C965        C966   1.403       .  A
C965        H974   1.084   1_655  S
C966        C972   1.407       .  A
C966        C967   1.414       .  A
C967        C969   1.401       .  A
C967        C968   1.405       .  A
C968        H975   1.084       .  S
C969        C970   1.396       .  A
C969        H976   1.084       .  S
C970        C971   1.405       .  A
C970        H977   1.083       .  S
C971        C972   1.406       .  A
C972        H978   1.084       .  S
C979        C980   1.405       .  A
C979        C984   1.406       .  A
C980        C981   1.400       .  A
C980        H989   1.083       .  S
C981        C982   1.403       .  A
C981        H990   1.084   1_655  S
C982        C988   1.405       .  A
C982        C983   1.414       .  A
C983        C985   1.402       .  A
C983        C984   1.403       .  A
C984        H991   1.085       .  S
C985        C986   1.396       .  A
C985        H992   1.084       .  S
C986        C987   1.405       .  A
C986        H993   1.083       .  S
C987        C988   1.406       .  A
C988        H994   1.084       .  S
C995        C996   1.404       .  A
C995       C1000   1.410       .  A
C996        C997   1.397       .  A
C996       H1005   1.083       .  S
C997        C998   1.403       .  A
C997       H1006   1.084       .  S
C998       C1004   1.405       .  A
C998        C999   1.412       .  A
C999       C1001   1.406       .  A
C999       C1000   1.412       .  A
C1000      H1007   1.084       .  S
C1001      C1002   1.405       .  A
C1001      H1008   1.083       .  S
C1002      C1003   1.406       .  A
C1002      H1009   1.083       .  S
C1003      C1004   1.411       .  A
C1004      H1010   1.084       .  S
C1011      C1012   1.408       .  A
C1011      C1016   1.408       .  A
C1012      C1013   1.393       .  A
C1012      H1021   1.084       .  S
C1013      C1014   1.397       .  A
C1013      H1022   1.084       .  S
C1014      C1020   1.405       .  A
C1014      C1015   1.416       .  A
C1015      C1017   1.404       .  A
C1015      C1016   1.414       .  A
C1016      H1023   1.084       .  S
C1017      C1018   1.403       .  A
C1017      H1024   1.083       .  S
C1018      C1019   1.407       .  A
C1018      H1025   1.083       .  S
C1019      C1020   1.404       .  A
C1020      H1026   1.084       .  S
C1027      C1028   1.403       .  A
C1027      C1468   1.404       .  A
C1028      C1029   1.399       .  A
C1028      H1037   1.083       .  S
C1029      C1030   1.403       .  A
C1029      H1038   1.083       .  S
C1030      C1036   1.405       .  A
C1030      C1031   1.415       .  A
C1031      C1469   1.402       .  A
C1031      C1468   1.401       .  A
C1032      C1463   1.407       .  A
C1032      C1467   1.404       .  A
C1032      H1039   1.085       .  S
C1033      C1467   1.403       .  A
C1033      C1034   1.398       .  A
C1033      H1040   1.084       .  S
C1034      C1471   1.403   1_545  A
C1034      H1041   1.084       .  S
C1035      C1470   1.403       .  A
C1035      C1036   1.403       .  A
C1036      H1042   1.084       .  S
C1043      C1044   1.404       .  A
C1043      C1048   1.401       .  A
C1044      C1045   1.400       .  A
C1044      H1053   1.083       .  S
C1045      C1046   1.404       .  A
C1045      H1054   1.083       .  S
C1046      C1052   1.407       .  A
C1046      C1047   1.416       .  A
C1047      C1049   1.399       .  A
C1047      C1048   1.399       .  A
C1048      H1055   1.085       .  S
C1049      C1050   1.393       .  A
C1049      H1056   1.084       .  S
C1050      C1051   1.403       .  A
C1050      H1057   1.084       .  S
C1051      C1052   1.403       .  A
C1052      H1058   1.084       .  S
C1059      C1496   1.404       .  A
C1059      C1064   1.405       .  A
C1059      C1313   1.479       .  S
C1060      C1495   1.405       .  A
C1060      C1061   1.399       .  A
C1060      H1069   1.083       .  S
C1061      C1498   1.403       .  A
C1061      H1070   1.083       .  S
C1062      C1497   1.402       .  A
C1062      C1068   1.408       .  A
C1062      C1063   1.416       .  A
C1063      C1065   1.403       .  A
C1063      C1064   1.408       .  A
C1064      H1071   1.084       .  S
C1065      C1066   1.400       .  A
C1065      H1072   1.084       .  S
C1066      C1067   1.404       .  A
C1067      C1068   1.404       .  A
C1068      H1510   1.084       .  S
H1074      C1504   1.084       .  S
C1075      C1512   1.403       .  A
C1075      C1080   1.410       .  A
C1076      C1511   1.404   1_545  A
C1076      C1077   1.399       .  A
C1077      C1078   1.403       .  A
C1077      H1086   1.084       .  S
C1078      C1084   1.405       .  A
C1078      C1515   1.413   1_545  A
C1079      C1514   1.413       .  A
C1079      C1081   1.406       .  A
C1079      C1080   1.410       .  A
C1080      H1087   1.084       .  S
C1081      C1082   1.403       .  A
C1081      H1088   1.083       .  S
C1082      C1083   1.404       .  A
C1082      H1089   1.083       .  S
C1083      C1520   1.405       .  A
C1083      C1310   1.479       .  S
C1084      C1519   1.407       .  A
C1084      H1090   1.084       .  S
N1091      N1098   1.435       .  S
N1091      C1531   1.372       .  A
N1091      C1528   1.373       .  A
C1092      N1527   1.372       .  A
C1092      C1093   1.380       .  A
C1092      C1737   1.480       .  S
C1093      C1094   1.361       .  A
C1093      H1096   1.083       .  S
C1094      C1095   1.379       .  A
C1094      H1097   1.083       .  S
C1095      N1527   1.370       .  A
C1095      C1713   1.478       .  S
N1098      C1102   1.368       .  A
N1098      C1099   1.370       .  A
C1099      C1100   1.380       .  A
C1099      C1245   1.474       .  S
C1100      C1101   1.358       .  A
C1100      H1103   1.083       .  S
C1101      C1102   1.379       .  A
C1101      H1104   1.083       .  S
C1102      C1261   1.471       .  S
N1105      N1112   1.432       .  S
N1105      C1109   1.367       .  A
N1105      C1106   1.367       .  A
C1106      C1107   1.383       .  A
C1106      C1237   1.488       .  S
C1107      C1108   1.375       .  A
C1107      H1110   1.083       .  S
C1108      C1109   1.381       .  A
C1108      H1111   1.083       .  S
C1109      C1213   1.490       .  S
N1112      C1116   1.362       .  A
N1112      C1113   1.361       .  A
C1113      C1114   1.381   1_655  A
C1113      C1189   1.482       .  S
C1114      C1115   1.374       .  A
C1114      H1117   1.082       .  S
C1115      C1116   1.383   1_455  A
C1115      H1118   1.083       .  S
C1116      C1205   1.481       .  S
O1120     Zr1157   2.424   1_455  S
O1120      C1121   1.286       .  A
O1122      C1124   1.296       .  A
O1123     Zr1594   2.411   1_545  S
O1123      C1124   1.285       .  A
C1124      C1221   1.489       .  S
O1125     Zr1134   2.504       .  S
O1125      C1127   1.299       .  A
O1126     Zr1593   2.382   1_545  S
O1126      C1127   1.280       .  A
C1127      C1229   1.486       .  S
O1128      C1130   1.293       .  A
O1129     Zr1158   2.423   1_455  S
C1130      C1285   1.479       .  S
Zr1131     O1573   2.372   1_455  S
Zr1131     O1356   2.379   1_455  S
Zr1131     O1163   2.378   1_455  S
O1132      H1175   0.990       .  S
O1133      H1174   0.990       .  S
O1133      H1178   0.990       .  S
Zr1134     O1137   2.378       .  S
Zr1134     O1162   2.362       .  S
Zr1134     O1135   2.433       .  S
Zr1134     O1136   2.436       .  S
O1135      H1179   0.991       .  S
O1136      H1169   0.990       .  S
O1137     Zr1567   2.376   1_645  S
O1137     Zr1593   2.384   1_545  S
O1138     Zr1349   2.374   1_646  S
O1138     Zr1594   2.385   1_545  S
O1138      H1165   0.966       .  S
O1139      C1141   1.289       .  A
O1140     Zr1158   2.421       .  S
O1140      C1141   1.286       .  A
C1141      C1181   1.482       .  S
O1142     Zr1154   2.461       .  S
O1142      C1144   1.290       .  A
O1143     Zr1157   2.426       .  S
O1143      C1144   1.285       .  A
C1144      C1269   1.470       .  S
O1145      C1147   1.288       .  A
O1146     Zr1158   2.416       .  S
O1146      C1147   1.283       .  A
C1147      C1253   1.468       .  S
O1148     Zr1151   2.452       .  S
O1148      C1150   1.289       .  A
O1149     Zr1157   2.406       .  S
O1149      C1150   1.283       .  A
C1150      C1197   1.478       .  S
Zr1151     O1160   2.383       .  S
Zr1151     O1163   2.378       .  S
Zr1151     O1152   2.433       .  S
Zr1151     O1153   2.434       .  S
O1152      H1172   0.989       .  S
O1152      H1177   0.991       .  S
O1153      H1173   0.990   1_655  S
Zr1154     O1160   2.382       .  S
Zr1154     O1382   2.370       .  S
Zr1154     O1598   2.378       .  S
Zr1154     O1155   2.435       .  S
Zr1154     O1592   2.441       .  S
O1155      H1171   0.990       .  S
O1156     Zr1590   2.438       .  S
O1156      H1170   0.990   1_565  S
O1156      H1180   0.991       .  S
Zr1157     O1562   2.383       .  S
Zr1157     O1573   2.383       .  S
Zr1157     O1160   2.375       .  S
Zr1157     O1598   2.386       .  S
Zr1157     O1163   2.377       .  S
Zr1158     O1559   2.403       .  S
Zr1158     O1574   2.389       .  S
Zr1158     O1159   2.383       .  S
Zr1158     O1161   2.373       .  S
Zr1158     O1600   2.383       .  S
O1159      H1167   0.965       .  S
O1162     Zr1590   2.379   1_545  S
O1162     Zr1593   2.388   1_545  S
O1162      H1166   0.965       .  S
O1163      H1168   0.967   1_655  S
O1164     Zr1372   2.368   1_546  S
O1164     Zr1594   2.381   1_545  S
C1181      C1182   1.407       .  A
C1181      C1186   1.405       .  A
C1182      C1183   1.400       .  A
C1182      H1191   1.083       .  S
C1183      C1184   1.403       .  A
C1183      H1192   1.084   1_655  S
C1184      C1190   1.406       .  A
C1184      C1185   1.414       .  A
C1185      C1187   1.400       .  A
C1185      C1186   1.402       .  A
C1186      H1193   1.084       .  S
C1187      C1188   1.394       .  A
C1187      H1194   1.084       .  S
C1188      C1189   1.405       .  A
C1188      H1195   1.082       .  S
C1189      C1190   1.405       .  A
C1190      H1196   1.084   1_655  S
C1197      C1198   1.405       .  A
C1197      C1202   1.406       .  A
C1198      C1199   1.400       .  A
C1198      H1207   1.083       .  S
C1199      C1200   1.404       .  A
C1199      H1208   1.084   1_655  S
C1200      C1206   1.405       .  A
C1200      C1201   1.414       .  A
C1201      C1203   1.401       .  A
C1201      C1202   1.400       .  A
C1202      H1209   1.085       .  S
C1203      C1204   1.395       .  A
C1203      H1210   1.084       .  S
C1204      C1205   1.404       .  A
C1204      H1211   1.082       .  S
C1205      C1206   1.406       .  A
C1206      H1212   1.084       .  S
C1213      C1214   1.405       .  A
C1213      C1218   1.410       .  A
C1214      C1215   1.398       .  A
C1214      H1223   1.083       .  S
C1215      C1216   1.403       .  A
C1215      H1224   1.084       .  S
C1216      C1222   1.407       .  A
C1216      C1217   1.413       .  A
C1217      C1219   1.405       .  A
C1217      C1218   1.411       .  A
C1218      H1225   1.084       .  S
C1219      C1220   1.404       .  A
C1219      H1226   1.083       .  S
C1220      C1221   1.405       .  A
C1220      H1227   1.083       .  S
C1221      C1222   1.410       .  A
C1222      H1228   1.084       .  S
C1229      C1230   1.409       .  A
C1229      C1234   1.409       .  A
C1230      C1231   1.393       .  A
C1230      H1239   1.084       .  S
C1231      C1232   1.397       .  A
C1231      H1240   1.084       .  S
C1232      C1238   1.404       .  A
C1232      C1233   1.416       .  A
C1233      C1235   1.405       .  A
C1233      C1234   1.415       .  A
C1234      H1241   1.084       .  S
C1235      C1236   1.404       .  A
C1235      H1242   1.083       .  S
C1236      C1237   1.407       .  A
C1236      H1243   1.083       .  S
C1237      C1238   1.403       .  A
C1238      H1244   1.084       .  S
C1245      C1246   1.402       .  A
C1245      C1686   1.405       .  A
C1246      C1247   1.399       .  A
C1246      H1255   1.083       .  S
C1247      C1248   1.404       .  A
C1247      H1256   1.083       .  S
C1248      C1254   1.405       .  A
C1248      C1249   1.415       .  A
C1249      C1687   1.402       .  A
C1249      C1686   1.401       .  A
C1250      C1681   1.405       .  A
C1250      C1685   1.402       .  A
C1250      H1257   1.085       .  S
C1251      C1685   1.403       .  A
C1251      C1252   1.398       .  A
C1251      H1258   1.084       .  S
C1252      C1689   1.403       .  A
C1252      H1259   1.084       .  S
C1253      C1688   1.403       .  A
C1253      C1254   1.403       .  A
C1254      H1260   1.084       .  S
C1261      C1262   1.403       .  A
C1261      C1266   1.401       .  A
C1262      C1263   1.401       .  A
C1262      H1271   1.083       .  S
C1263      C1264   1.404       .  A
C1263      H1272   1.083       .  S
C1264      C1270   1.409       .  A
C1264      C1265   1.416       .  A
C1265      C1267   1.399       .  A
C1265      C1266   1.400       .  A
C1266      H1273   1.085       .  S
C1267      C1268   1.394       .  A
C1267      H1274   1.084       .  S
C1268      C1269   1.403       .  A
C1268      H1275   1.084       .  S
C1269      C1270   1.405       .  A
C1270      H1276   1.084       .  S
C1277      C1714   1.405       .  A
C1277      C1282   1.406       .  A
C1277      C1531   1.481       .  S
C1278      C1713   1.404       .  A
C1278      C1279   1.397       .  A
C1278      H1287   1.083       .  S
C1279      C1716   1.402       .  A
C1279      H1288   1.083       .  S
C1280      C1715   1.402       .  A
C1280      C1286   1.409       .  A
C1280      C1281   1.416       .  A
C1281      C1283   1.403       .  A
C1281      C1282   1.409       .  A
C1282      H1289   1.084       .  S
C1283      C1284   1.401       .  A
C1283      H1290   1.084       .  S
C1284      C1285   1.405       .  A
C1285      C1286   1.404       .  A
C1286      H1728   1.084       .  S
H1292      C1722   1.084       .  S
C1293      C1730   1.403       .  A
C1293      C1298   1.411       .  A
C1294      C1729   1.405       .  A
C1294      C1295   1.399       .  A
C1295      C1296   1.403       .  A
C1295      H1304   1.084       .  S
C1296      C1302   1.404       .  A
C1296      C1733   1.413   1_545  A
C1297      C1732   1.413       .  A
C1297      C1299   1.407       .  A
C1297      C1298   1.412       .  A
C1298      H1305   1.084       .  S
C1299      C1300   1.405       .  A
C1299      H1306   1.083       .  S
C1300      C1301   1.404       .  A
C1300      H1307   1.083       .  S
C1301      C1738   1.406       .  A
C1301      C1528   1.484       .  S
C1302      C1737   1.407       .  A
C1302      H1308   1.084       .  S
N1309      N1316   1.434       .  S
C1310      C1311   1.380       .  A
C1311      C1312   1.360       .  A
C1311      H1314   1.083       .  S
C1312      C1313   1.379       .  A
C1312      H1315   1.083       .  S
N1316      C1320   1.369       .  A
N1316      C1317   1.371       .  A
C1317      C1318   1.380       .  A
C1317      C1463   1.480       .  S
C1318      C1319   1.360       .  A
C1318      H1321   1.083       .  S
C1319      C1320   1.379       .  A
C1319      H1322   1.083       .  S
C1320      C1479   1.477       .  S
N1323      N1330   1.433       .  S
N1323      C1327   1.367       .  A
N1323      C1324   1.368       .  A
C1324      C1325   1.383       .  A
C1324      C1455   1.488       .  S
C1325      C1326   1.375       .  A
C1325      H1328   1.083       .  S
C1326      C1327   1.381       .  A
C1326      H1329   1.083       .  S
C1327      C1431   1.489       .  S
N1330      C1334   1.362       .  A
N1330      C1331   1.361       .  A
C1331      C1332   1.381   1_655  A
C1331      C1407   1.483       .  S
C1332      C1333   1.375       .  A
C1332      H1335   1.082       .  S
C1333      C1334   1.383   1_455  A
C1333      H1336   1.083       .  S
C1334      C1423   1.481       .  S
O1338     Zr1375   2.431   1_455  S
O1338      C1339   1.287       .  A
O1340     Zr1570   2.478       .  S
O1340      C1342   1.295       .  A
O1341      C1342   1.286       .  A
C1342      C1439   1.490       .  S
O1343     Zr1352   2.503       .  S
O1343      C1345   1.299       .  A
O1344      C1345   1.280       .  A
C1345      C1447   1.484       .  S
O1346      C1348   1.290       .  A
O1347     Zr1376   2.420   1_455  S
C1348      C1503   1.475       .  S
Zr1349     O1597   2.379   1_454  S
Zr1349     O1381   2.381   1_455  S
O1350      H1393   0.990       .  S
O1351      H1392   0.990       .  S
O1351      H1396   0.991   1_554  S
Zr1352     O1558   2.493   1_554  S
Zr1352     O1574   2.379   1_554  S
Zr1352     O1355   2.378       .  S
Zr1352     O1380   2.366       .  S
Zr1352     O1600   2.373   1_554  S
Zr1352     O1353   2.432       .  S
Zr1352     O1354   2.434       .  S
O1353      H1612   0.990       .  S
O1353      H1397   0.991   1_655  S
O1354      H1387   0.991       .  S
O1356     Zr1570   2.380       .  S
O1356      H1383   0.966       .  S
O1357     Zr1587   2.455       .  S
O1357      C1359   1.291       .  A
O1358     Zr1376   2.420       .  S
O1358      C1359   1.286       .  A
C1359      C1399   1.483       .  S
O1360     Zr1372   2.458       .  S
O1360      C1362   1.289       .  A
O1361     Zr1375   2.429       .  S
O1361      C1362   1.286       .  A
C1362      C1487   1.471       .  S
O1363     Zr1590   2.461       .  S
O1363      C1365   1.288       .  A
O1364     Zr1376   2.420       .  S
O1364      C1365   1.283       .  A
C1365      C1471   1.473       .  S
O1366     Zr1369   2.454       .  S
O1366      C1368   1.290       .  A
O1367     Zr1375   2.403       .  S
O1367      C1368   1.283       .  A
C1368      C1415   1.479       .  S
Zr1369     O1575   2.452   1_554  S
Zr1369     O1595   2.382   1_554  S
Zr1369     O1378   2.380       .  S
Zr1369     O1381   2.380       .  S
Zr1369     O1597   2.379   1_554  S
Zr1369     O1370   2.434       .  S
Zr1369     O1371   2.435       .  S
O1370      H1390   0.989   1_554  S
O1370      H1395   0.991       .  S
O1371      H1391   0.990   1_655  S
Zr1372     O1581   2.464   1_554  S
Zr1372     O1378   2.380       .  S
Zr1372     O1595   2.379   1_554  S
Zr1372     O1373   2.435       .  S
O1373      H1389   0.990       .  S
O1374      H1388   0.990       .  S
O1374      H1398   0.991       .  S
Zr1375     O1378   2.375       .  S
Zr1375     O1381   2.377       .  S
Zr1376     O1377   2.382       .  S
Zr1376     O1379   2.373       .  S
O1377     Zr1587   2.383       .  S
O1377     Zr1590   2.378       .  S
O1377      H1385   0.964       .  S
O1379     Zr1567   2.376   1_655  S
O1379     Zr1587   2.380       .  S
O1380      H1384   0.965       .  S
O1381      H1386   0.966   1_655  S
O1382     Zr1570   2.375       .  S
H1394      O1571   0.990       .  S
C1399      C1400   1.406       .  A
C1399      C1404   1.406       .  A
C1400      C1401   1.400       .  A
C1400      H1409   1.083       .  S
C1401      C1402   1.403       .  A
C1401      H1410   1.083   1_655  S
C1402      C1408   1.407       .  A
C1402      C1403   1.415       .  A
C1403      C1405   1.400       .  A
C1403      C1404   1.404       .  A
C1404      H1411   1.084       .  S
C1405      C1406   1.394       .  A
C1405      H1412   1.084       .  S
C1406      C1407   1.405       .  A
C1406      H1413   1.082       .  S
C1407      C1408   1.406       .  A
C1408      H1414   1.084   1_655  S
C1415      C1416   1.405       .  A
C1415      C1420   1.406       .  A
C1416      C1417   1.401       .  A
C1416      H1425   1.083       .  S
C1417      C1418   1.404       .  A
C1417      H1426   1.084       .  S
C1418      C1424   1.405       .  A
C1418      C1419   1.413       .  A
C1419      C1421   1.401       .  A
C1419      C1420   1.399       .  A
C1420      H1427   1.085       .  S
C1421      C1422   1.394       .  A
C1421      H1428   1.084       .  S
C1422      C1423   1.404       .  A
C1422      H1429   1.082       .  S
C1423      C1424   1.407       .  A
C1424      H1430   1.084       .  S
C1431      C1432   1.404       .  A
C1431      C1436   1.411       .  A
C1432      C1433   1.396       .  A
C1432      H1441   1.083       .  S
C1433      C1434   1.402       .  A
C1433      H1442   1.083       .  S
C1434      C1440   1.405       .  A
C1434      C1435   1.413       .  A
C1435      C1437   1.406       .  A
C1435      C1436   1.412       .  A
C1436      H1443   1.084       .  S
C1437      C1438   1.405       .  A
C1437      H1444   1.083       .  S
C1438      C1439   1.407       .  A
C1438      H1445   1.083       .  S
C1439      C1440   1.409       .  A
C1440      H1446   1.084       .  S
C1447      C1448   1.409       .  A
C1447      C1452   1.409       .  A
C1448      C1449   1.392       .  A
C1448      H1457   1.084       .  S
C1449      C1450   1.396       .  A
C1449      H1458   1.084       .  S
C1450      C1456   1.404       .  A
C1450      C1451   1.416       .  A
C1451      C1453   1.404       .  A
C1451      C1452   1.415       .  A
C1452      H1459   1.084       .  S
C1453      C1454   1.404       .  A
C1453      H1460   1.083       .  S
C1454      C1455   1.407       .  A
C1454      H1461   1.083       .  S
C1455      C1456   1.403       .  A
C1456      H1462   1.084       .  S
C1463      C1464   1.403   1_545  A
C1464      C1465   1.401       .  A
C1464      H1473   1.083       .  S
C1465      C1466   1.404       .  A
C1465      H1474   1.083       .  S
C1466      C1472   1.408       .  A
C1466      C1467   1.414   1_565  A
C1468      H1475   1.085       .  S
C1469      C1470   1.397       .  A
C1469      H1476   1.084       .  S
C1470      H1477   1.084       .  S
C1471      C1472   1.405       .  A
C1472      H1478   1.084       .  S
C1479      C1480   1.404   1_545  A
C1479      C1484   1.402       .  A
C1480      C1481   1.403       .  A
C1480      H1489   1.083       .  S
C1481      C1482   1.405       .  A
C1481      H1490   1.083       .  S
C1482      C1488   1.411       .  A
C1482      C1483   1.416   1_565  A
C1483      C1485   1.399       .  A
C1483      C1484   1.402       .  A
C1484      H1491   1.085       .  S
C1485      C1486   1.393       .  A
C1485      H1492   1.084       .  S
C1486      C1487   1.403   1_545  A
C1486      H1493   1.084       .  S
C1487      C1488   1.406       .  A
C1488      H1494   1.084       .  S
C1495      C1500   1.404       .  A
C1496      C1497   1.398       .  A
C1496      H1505   1.083       .  S
C1497      H1506   1.083       .  S
C1498      C1504   1.409       .  A
C1498      C1499   1.416       .  A
C1499      C1501   1.402   1_545  A
C1499      C1500   1.408       .  A
C1500      H1507   1.084   1_545  S
C1501      C1502   1.398       .  A
C1501      H1508   1.083       .  S
C1502      C1503   1.403       .  A
C1503      C1504   1.405   1_565  A
C1511      C1516   1.410       .  A
C1512      C1513   1.397       .  A
C1513      C1514   1.401       .  A
C1513      H1522   1.084       .  S
C1514      C1520   1.403       .  A
C1515      C1517   1.406       .  A
C1515      C1516   1.411       .  A
C1516      H1523   1.084       .  S
C1517      C1518   1.403       .  A
C1517      H1524   1.083       .  S
C1518      C1519   1.404   1_565  A
C1518      H1525   1.083       .  S
C1520      H1526   1.084       .  S
N1527      N1534   1.434       .  S
C1528      C1529   1.380       .  A
C1529      C1530   1.360       .  A
C1529      H1532   1.083       .  S
C1530      C1531   1.379       .  A
C1530      H1533   1.083       .  S
N1534      C1538   1.367       .  A
N1534      C1535   1.370       .  A
C1535      C1536   1.380       .  A
C1535      C1681   1.476       .  S
C1536      C1537   1.359       .  A
C1536      H1539   1.083       .  S
C1537      C1538   1.379       .  A
C1537      H1540   1.083       .  S
C1538      C1697   1.472       .  S
N1541      N1548   1.432       .  S
N1541      C1545   1.366       .  A
N1541      C1542   1.367       .  A
C1542      C1543   1.383       .  A
C1542      C1673   1.488       .  S
C1543      C1544   1.376       .  A
C1543      H1546   1.083       .  S
C1544      C1545   1.381       .  A
C1544      H1547   1.083       .  S
C1545      C1649   1.488       .  S
N1548      C1552   1.362       .  A
N1548      C1549   1.361       .  A
C1549      C1550   1.381   1_655  A
C1549      C1625   1.483       .  S
C1550      C1551   1.374       .  A
C1550      H1553   1.082       .  S
C1551      C1552   1.383   1_455  A
C1551      H1554   1.083       .  S
C1552      C1641   1.482       .  S
O1556     Zr1593   2.432   1_455  S
O1556      C1557   1.288       .  A
O1558      C1560   1.298       .  A
O1559      C1560   1.284       .  A
C1560      C1657   1.494       .  S
O1561     Zr1570   2.496       .  S
O1561      C1563   1.297       .  A
O1562      C1563   1.280       .  A
C1563      C1665   1.482       .  S
O1564      C1566   1.291       .  A
O1565     Zr1594   2.411   1_455  S
C1566      C1721   1.475       .  S
Zr1567     O1599   2.382   1_455  S
O1568      H1611   0.990       .  S
O1569      H1610   0.989       .  S
O1569      H1614   0.991       .  S
Zr1570     O1573   2.376       .  S
Zr1570     O1598   2.365       .  S
Zr1570     O1571   2.434       .  S
Zr1570     O1572   2.433       .  S
O1571      H1615   0.990   1_655  S
O1572      H1605   0.991       .  S
O1574      H1601   0.966       .  S
O1575      C1577   1.290       .  A
O1576     Zr1594   2.423       .  S
O1576      C1577   1.287       .  A
C1577      C1617   1.484       .  S
O1578     Zr1590   2.450       .  S
O1578      C1580   1.287       .  A
O1579     Zr1593   2.429       .  S
O1579      C1580   1.286       .  A
C1580      C1705   1.465       .  S
O1581      C1583   1.289       .  A
O1582     Zr1594   2.414       .  S
O1582      C1583   1.283       .  A
C1583      C1689   1.470   1_565  S
O1584     Zr1587   2.453       .  S
O1584      C1586   1.289       .  A
O1585     Zr1593   2.417       .  S
O1585      C1586   1.285       .  A
C1586      C1633   1.481       .  S
Zr1587     O1596   2.381       .  S
Zr1587     O1599   2.379       .  S
Zr1587     O1588   2.435       .  S
Zr1587     O1589   2.437   1_655  S
O1588      H1608   0.989       .  S
O1588      H1613   0.991       .  S
O1589      H1609   0.990       .  S
Zr1590     O1596   2.382       .  S
Zr1590     O1591   2.434       .  S
O1591      H1607   0.990       .  S
O1592      H1606   0.990       .  S
O1592      H1616   0.991       .  S
Zr1593     O1596   2.374       .  S
Zr1593     O1599   2.373       .  S
Zr1594     O1595   2.381       .  S
Zr1594     O1597   2.376       .  S
O1595      H1603   0.965       .  S
O1598      H1602   0.965       .  S
O1599      H1604   0.966   1_655  S
C1617      C1618   1.407       .  A
C1617      C1622   1.407       .  A
C1618      C1619   1.399       .  A
C1618      H1627   1.083       .  S
C1619      C1620   1.402       .  A
C1619      H1628   1.084   1_655  S
C1620      C1626   1.406       .  A
C1620      C1621   1.414       .  A
C1621      C1623   1.401       .  A
C1621      C1622   1.404       .  A
C1622      H1629   1.084       .  S
C1623      C1624   1.396       .  A
C1623      H1630   1.084       .  S
C1624      C1625   1.405       .  A
C1624      H1631   1.082       .  S
C1625      C1626   1.405       .  A
C1626      H1632   1.084       .  S
C1633      C1634   1.406       .  A
C1633      C1638   1.406       .  A
C1634      C1635   1.400       .  A
C1634      H1643   1.083       .  S
C1635      C1636   1.403       .  A
C1635      H1644   1.084       .  S
C1636      C1642   1.405       .  A
C1636      C1637   1.413       .  A
C1637      C1639   1.402       .  A
C1637      C1638   1.403       .  A
C1638      H1645   1.084       .  S
C1639      C1640   1.396       .  A
C1639      H1646   1.084       .  S
C1640      C1641   1.404       .  A
C1640      H1647   1.082       .  S
C1641      C1642   1.406       .  A
C1642      H1648   1.084       .  S
C1649      C1650   1.403       .  A
C1649      C1654   1.411       .  A
C1650      C1651   1.396       .  A
C1650      H1659   1.083       .  S
C1651      C1652   1.403       .  A
C1651      H1660   1.084       .  S
C1652      C1658   1.404       .  A
C1652      C1653   1.412       .  A
C1653      C1655   1.407       .  A
C1653      C1654   1.413       .  A
C1654      H1661   1.084       .  S
C1655      C1656   1.406       .  A
C1655      H1662   1.083       .  S
C1656      C1657   1.406       .  A
C1656      H1663   1.083       .  S
C1657      C1658   1.411       .  A
C1658      H1664   1.084       .  S
C1665      C1666   1.408       .  A
C1665      C1670   1.408       .  A
C1666      C1667   1.393       .  A
C1666      H1675   1.084       .  S
C1667      C1668   1.397       .  A
C1667      H1676   1.084       .  S
C1668      C1674   1.404       .  A
C1668      C1669   1.416       .  A
C1669      C1671   1.404       .  A
C1669      C1670   1.413       .  A
C1670      H1677   1.084       .  S
C1671      C1672   1.403       .  A
C1671      H1678   1.083       .  S
C1672      C1673   1.407       .  A
C1672      H1679   1.083       .  S
C1673      C1674   1.404       .  A
C1674      H1680   1.084       .  S
C1681      C1682   1.403   1_545  A
C1682      C1683   1.399       .  A
C1682      H1691   1.083       .  S
C1683      C1684   1.404       .  A
C1683      H1692   1.083       .  S
C1684      C1690   1.405       .  A
C1684      C1685   1.414   1_565  A
C1686      H1693   1.085       .  S
C1687      C1688   1.397       .  A
C1687      H1694   1.084       .  S
C1688      H1695   1.084       .  S
C1689      C1690   1.404   1_545  A
C1690      H1696   1.084       .  S
C1697      C1698   1.403   1_545  A
C1697      C1702   1.401       .  A
C1698      C1699   1.401       .  A
C1698      H1707   1.083       .  S
C1699      C1700   1.404       .  A
C1699      H1708   1.083       .  S
C1700      C1706   1.408       .  A
C1700      C1701   1.416   1_565  A
C1701      C1703   1.399       .  A
C1701      C1702   1.399       .  A
C1702      H1709   1.085       .  S
C1703      C1704   1.392       .  A
C1703      H1710   1.084       .  S
C1704      C1705   1.403   1_545  A
C1704      H1711   1.084       .  S
C1705      C1706   1.403       .  A
C1706      H1712   1.084       .  S
C1713      C1718   1.405       .  A
C1714      C1715   1.398       .  A
C1714      H1723   1.083       .  S
C1715      H1724   1.083       .  S
C1716      C1722   1.408       .  A
C1716      C1717   1.417       .  A
C1717      C1719   1.403   1_545  A
C1717      C1718   1.409       .  A
C1718      H1725   1.084   1_545  S
C1719      C1720   1.400       .  A
C1719      H1726   1.084       .  S
C1720      C1721   1.404       .  A
C1721      C1722   1.404   1_565  A
C1729      C1734   1.408   1_545  A
C1730      C1731   1.397       .  A
C1731      C1732   1.402       .  A
C1731      H1740   1.084       .  S
C1732      C1738   1.403       .  A
C1733      C1735   1.405       .  A
C1733      C1734   1.408       .  A
C1734      H1741   1.084       .  S
C1735      C1736   1.402       .  A
C1735      H1742   1.083       .  S
C1736      C1737   1.403   1_565  A
C1736      H1743   1.083       .  S
C1738      H1744   1.085       .  S
