geometry optimzed in LAMMPS
_audit_creation_date              2020-11-30 
_audit_creation_method            'lammps2cif' 
_symmetry_space_group_name_H-M    'P1' 
_symmetry_Int_Tables_number       1 
_symmetry_cell_setting            triclinic 
loop_ 
_symmetry_equiv_pos_as_xyz 
  x,y,z 
_cell_length_a                    36.33919468 
_cell_length_b                    36.400087081734846 
_cell_length_c                    36.325138266126416 
_cell_angle_alpha                 90.00361870378542 
_cell_angle_beta                  90.06531349987488 
_cell_angle_gamma                 90.04934932533732 
loop_ 
_atom_site_label 
_atom_site_type_symbol 
_atom_site_fract_x 
_atom_site_fract_y 
_atom_site_fract_z 
_atom_site_charge 
O1          O  0.93678375  0.99544354  0.93568083    -0.77700
C2          C  0.03636701  0.93351032  0.92763516     0.83300
O3          O  0.94872133  0.94482673  0.05734708    -0.78900
O4          O  0.07886132  0.97197425  0.03449306    -0.80300
O5          O  0.03057446  0.07979614  0.97376870    -0.80100
O6          O  0.94335981  0.05471241  0.94944156    -0.78800
Zn7        Zn  0.97055838  0.96664733  0.96789581     1.55700
O8          O  0.07632698  0.03897941  0.97390482    -0.80200
Cd9        Cd  0.98417811  0.05076263  0.98986950     1.59700
Cd10       Cd  0.98828431  0.98635449  0.05288455     1.59600
O11         O  0.96633713  0.07655791  0.03773632    -0.80200
O12         O  0.99849820  0.99828532  0.99963125    -1.90700
Cd13       Cd  0.05178525  0.98981385  0.98786729     1.59900
O14         O  0.97049237  0.03323140  0.08073930    -0.80100
O15         O  0.06034257  0.95178657  0.94554620    -0.78800
C16         C  0.93435947  0.92560018  0.03170074     0.83800
C17         C  0.92862178  0.02902440  0.93062809     0.83400
O18         O  0.00216447  0.93691013  0.93395408    -0.77700
C19         C  0.06457621  0.07176579  0.97023553     0.84200
O20         O  0.94124510  0.93156775  0.99788962    -0.77800
C21         C  0.96365544  0.06634523  0.07121649     0.84400
C22         C  0.06988427  0.96600737  0.06790542     0.84700
O23         O  0.03669392  0.96934424  0.07896869    -0.80200
O24         O  0.06204827  0.24222470  0.18489301    -0.77700
C25         C  0.06650378  0.17549052  0.28453674     0.83300
O26         O  0.93907803  0.19679394  0.19924287    -0.78900
O27         O  0.96453765  0.22077296  0.33012983    -0.80300
O28         O  0.03066077  0.32658712  0.28622350    -0.80100
O29         O  0.05652957  0.30159438  0.19872320    -0.78800
Zn30       Zn  0.02933875  0.21428068  0.21960881     1.55700
O31         O  0.02830552  0.28395609  0.32995403    -0.80200
Cd32       Cd  0.01506034  0.29875505  0.23862905     1.59700
Cd33       Cd  0.94672468  0.23797067  0.23946546     1.59600
O34         O  0.96914920  0.32714303  0.22052273    -0.80200
O35         O  0.00068269  0.24663393  0.24998683    -1.90700
Cd36       Cd  0.01218351  0.23629295  0.30316339     1.59900
O37         O  0.92257339  0.28723283  0.22249802    -0.80100
O38         O  0.05181826  0.19509167  0.30962371    -0.78800
C39         C  0.96337271  0.17707705  0.18327462     0.83800
C40         C  0.07061879  0.27573578  0.17966920     0.83400
O41         O  0.05980162  0.18087215  0.25058435    -0.77700
C42         C  0.03314956  0.31719033  0.31999618     0.84200
O43         O  0.99752052  0.18147403  0.18930582    -0.77800
C44         C  0.93499284  0.31969777  0.21727122     0.84400
C45         C  0.93066062  0.21797890  0.32126563     0.84700
O46         O  0.91977537  0.22290813  0.28814662    -0.80200
O47         O  0.74495652  0.19612242  0.57026851    -0.77700
C48         C  0.67780996  0.29183539  0.56871400     0.83300
O49         O  0.69826338  0.19566053  0.44682555    -0.78900
O50         O  0.71816554  0.32899219  0.45983703    -0.80300
O51         O  0.82562868  0.29118193  0.53076673    -0.80100
O52         O  0.80458214  0.20491681  0.55979408    -0.78800
Zn53       Zn  0.71567362  0.22542397  0.53452205     1.55700
O54         O  0.78311863  0.33473694  0.52418894    -0.80200
Cd55       Cd  0.79990933  0.24255161  0.51617319     1.59700
Cd56       Cd  0.73803265  0.23714250  0.45062285     1.59600
O57         O  0.82877000  0.22507092  0.46998787    -0.80200
O58         O  0.74718721  0.25303260  0.50282517    -1.90700
Cd59       Cd  0.73536807  0.30674206  0.50951159     1.59900
O60         O  0.78690329  0.22178062  0.42531713    -0.80100
O61         O  0.69473978  0.31578400  0.54950018    -0.78800
C62         C  0.67805641  0.18280506  0.47247479     0.83800
C63         C  0.77852645  0.19038415  0.57831767     0.83400
O64         O  0.68377315  0.25769687  0.56492396    -0.77700
C65         C  0.81611326  0.32492256  0.53120820     0.84200
O66         O  0.68240520  0.19249308  0.50585684    -0.77800
C67         C  0.82021853  0.21977715  0.43631018     0.84400
C68         C  0.71467697  0.31578335  0.42748547     0.84700
O69         O  0.72026037  0.28189086  0.42053935    -0.80200
O70         O  0.74560321  0.07067991  0.69400071    -0.77700
C71         C  0.68369145  0.96984731  0.67577873     0.83300
O72         O  0.69464129  0.05288778  0.80915973    -0.78900
O73         O  0.71800499  0.92167282  0.78600112    -0.80300
O74         O  0.82646579  0.96744896  0.72031160    -0.80100
O75         O  0.80489819  0.05749748  0.70020489    -0.78800
Zn76       Zn  0.71576566  0.03314293  0.72024968     1.55700
O77         O  0.78369157  0.92372999  0.72324784    -0.80200
Cd78       Cd  0.79910848  0.01428757  0.73811459     1.59700
Cd79       Cd  0.73540633  0.01286631  0.80340450     1.59600
O80         O  0.82538325  0.02896942  0.78630225    -0.80200
O81         O  0.74634936  0.00252781  0.75019018    -1.90700
Cd82       Cd  0.73541371  0.94960581  0.73894504     1.59900
O83         O  0.78286086  0.02970926  0.83052557    -0.80100
O84         O  0.69733640  0.94465636  0.69604181    -0.78800
C85         C  0.67501197  0.06814936  0.78438677     0.83800
C86         C  0.77921854  0.07754287  0.68719698     0.83400
O87         O  0.68950626  0.00373650  0.68202915    -0.77700
C88         C  0.81685698  0.93383292  0.71756156     0.84200
O89         O  0.67930676  0.06131309  0.75033035    -0.77800
C90         C  0.81611761  0.03323654  0.81990975     0.84400
C91         C  0.71463345  0.93133079  0.81962921     0.84700
O92         O  0.71945038  0.96464633  0.82962873    -0.80200
O93         O  0.18769828  0.99912769  0.18438622    -0.77700
C94         C  0.17518492  0.06379350  0.28472243     0.83300
O95         O  0.30192819  0.05306105  0.19391451    -0.78900
O96         O  0.28868956  0.03037234  0.32679465    -0.80300
O97         O  0.22035822  0.92221212  0.28798417    -0.80100
O98         O  0.19708280  0.94028021  0.19798465    -0.78800
Zn99       Zn  0.21553068  0.02942794  0.22005793     1.55700
O100        O  0.22422488  0.96601426  0.33071253    -0.80200
Cd101      Cd  0.23720783  0.94690112  0.23928779     1.59700
Cd102      Cd  0.29954689  0.01219928  0.23439740     1.59600
O103        O  0.28558142  0.91996644  0.22363666    -0.80200
O104        O  0.24789531  0.00026337  0.24923241    -1.90700
Cd105      Cd  0.23955525  0.01323661  0.30255922     1.59900
O106        O  0.32640338  0.96524710  0.21716221    -0.80100
O107        O  0.19750086  0.05226558  0.30929274    -0.78800
C108        C  0.27558471  0.07261801  0.18146885     0.83800
C109        C  0.18180677  0.96525181  0.17859734     0.83400
O110        O  0.17920838  0.05558612  0.25098852    -0.77700
C111        C  0.21801640  0.93275663  0.32147150     0.84200
O112        O  0.24242438  0.06680033  0.19077849    -0.77800
C113        C  0.31810066  0.93119444  0.21638048     0.84400
C114        C  0.32148350  0.03304974  0.31446248     0.84700
O115        O  0.32899758  0.02814427  0.28050383    -0.80200
O116        O  0.05893346  0.50547834  0.56698376    -0.77700
C117        C  0.07505041  0.56625871  0.46534521     0.83300
O118        O  0.94327980  0.55548613  0.55277565    -0.78900
O119        O  0.96271365  0.53373282  0.42090734    -0.80300
O120        O  0.02980056  0.42470224  0.46296025    -0.80100
O121        O  0.05372578  0.44641746  0.55185675    -0.78800
Zn122      Zn  0.03132319  0.53486142  0.52983883     1.55700
O123        O  0.02508247  0.46680478  0.41870797    -0.80200
Cd124      Cd  0.01335961  0.45116876  0.51073788     1.59700
Cd125      Cd  0.94914662  0.51459376  0.51294601     1.59600
O126        O  0.96568003  0.42370248  0.52689906    -0.80200
O127        O  0.00145283  0.50395274  0.49966969    -1.90700
Cd128      Cd  0.01105700  0.51526971  0.44607238     1.59900
O129        O  0.92290296  0.46730391  0.52971920    -0.80100
O130        O  0.05459097  0.55296952  0.44000365    -0.78800
C131        C  0.96801004  0.57694438  0.56528818     0.90200
C132        C  0.06694684  0.47187057  0.57212675     0.83400
O133        O  0.06855813  0.56039449  0.49922060    -0.77700
C134        C  0.03130323  0.43384654  0.42904939     0.84200
O135        O  0.00178935  0.57273517  0.55706502    -0.77800
C136        C  0.93247158  0.43372563  0.53237666     0.84400
C137        C  0.92963606  0.53617345  0.43257805     0.84700
O138        O  0.92137766  0.53040701  0.46619127    -0.80200
O139        O  0.43127359  0.30805404  0.74961452    -0.77700
C140        C  0.43249194  0.21659793  0.82048379     0.83300
O141        O  0.55560227  0.30525276  0.80098596    -0.78900
O142        O  0.53462816  0.17300244  0.77813744    -0.80300
O143        O  0.47411928  0.21427565  0.66732153    -0.80100
O144        O  0.44393613  0.30203902  0.69007579    -0.78800
Zn145      Zn  0.46756561  0.28077141  0.77948654     1.55700
O146        O  0.47296707  0.17184138  0.71158075    -0.80200
Cd147      Cd  0.48734940  0.26334256  0.69508339     1.59700
Cd148      Cd  0.55095023  0.26332575  0.76150756     1.59600
O149        O  0.53517396  0.28340937  0.67005238    -0.80200
O150        O  0.49832178  0.25169245  0.74856575    -1.90700
Cd151      Cd  0.48725806  0.19881657  0.75962425     1.59900
O152        O  0.57768972  0.28056754  0.71423339    -0.80100
O153        O  0.44627027  0.19203743  0.79962317    -0.78800
C154        C  0.52977465  0.32482336  0.81438860     0.83800
C155        C  0.42452060  0.31555994  0.71611901     0.83400
O156        O  0.43979828  0.25047415  0.81602011    -0.77700
C157        C  0.47012845  0.18090524  0.67774894     0.84200
O158        O  0.49621408  0.31819848  0.80712432    -0.77800
C159        C  0.56846799  0.28710182  0.68097366     0.84400
C160        C  0.56788323  0.18288971  0.78372731     0.84700
O161        O  0.57800002  0.21619591  0.77935956    -0.80200
O162        O  0.81457762  0.74854767  0.93425198    -0.77700
C163        C  0.72116239  0.81857710  0.93037716     0.83300
O164        O  0.80524068  0.80045235  0.05784666    -0.78900
O165        O  0.67261329  0.77479727  0.03285128    -0.80300
O166        O  0.72012920  0.66738690  0.97394600    -0.80100
O167        O  0.80687917  0.68992222  0.94994514    -0.78800
Zn168      Zn  0.78416977  0.77863348  0.96832797     1.55700
O169        O  0.67610048  0.70963349  0.96919079    -0.80200
Cd170      Cd  0.76658229  0.69586499  0.99006559     1.59700
Cd171      Cd  0.76350861  0.76106742  0.05231994     1.59600
O172        O  0.78433976  0.67096544  0.03805826    -0.80200
O173        O  0.75379083  0.74864247  0.99915998    -1.90700
Cd174      Cd  0.70101848  0.75827652  0.98591929     1.59900
O175        O  0.77975618  0.71426121  0.08098682    -0.80100
O176        O  0.69607448  0.79869179  0.94484172    -0.78800
C177        C  0.82541256  0.81381526  0.03242721     0.83800
C178        C  0.82203408  0.71469778  0.93040414     0.83400
O179        O  0.75498769  0.81407615  0.93806702    -0.77700
C180        C  0.68686303  0.67627912  0.96734906     0.84200
O181        O  0.81955611  0.80683023  0.99866313    -0.77800
C182        C  0.78675979  0.68123810  0.07154565     0.84400
C183        C  0.68168596  0.78087423  0.06631231     0.84700
O184        O  0.71504059  0.77826941  0.07705604    -0.80200
O185        O  0.31399045  0.24561572  0.93398035    -0.77700
C186        C  0.21787857  0.31617283  0.92576278     0.83300
O187        O  0.30541704  0.30172549  0.05219870    -0.78900
O188        O  0.17215680  0.27737067  0.03389254    -0.80300
O189        O  0.21162875  0.17001272  0.97008729    -0.80100
O190        O  0.30186355  0.18699519  0.94603501    -0.78800
Zn191      Zn  0.28157926  0.27734951  0.96406235     1.55700
O192        O  0.17050130  0.21548528  0.96955325    -0.80200
Cd193      Cd  0.26062849  0.19534110  0.98615666     1.59700
Cd194      Cd  0.26263647  0.26323687  0.04858477     1.59600
O195        O  0.27614980  0.17034623  0.03547285    -0.80200
O196        O  0.25111972  0.24917674  0.99618290    -1.90700
Cd197      Cd  0.19850982  0.26185548  0.98606084     1.59900
O198        O  0.27781168  0.21633552  0.07629433    -0.80100
O199        O  0.19286893  0.30232190  0.94602069    -0.78800
C200        C  0.32381129  0.31582068  0.02583536     0.83800
C201        C  0.32023458  0.21166806  0.92909539     0.83400
O202        O  0.25169362  0.30822992  0.93002545    -0.77700
C203        C  0.17873629  0.18166459  0.96577941     0.84200
O204        O  0.31615328  0.30888252  0.99240731    -0.77800
C205        C  0.28077131  0.18237635  0.06821819     0.84400
C206        C  0.18203140  0.28269330  0.06715955     0.84700
O207        O  0.21575795  0.28072108  0.07677729    -0.80200
O208        O  0.75326555  0.42988039  0.30746433    -0.77700
C209        C  0.82382247  0.43113836  0.21637597     0.83300
O210        O  0.80166504  0.55535954  0.30349497    -0.78900
O211        O  0.78045126  0.53359825  0.17091487    -0.80300
O212        O  0.67204355  0.46995277  0.21333504    -0.80100
O213        O  0.69408609  0.44397483  0.30033747    -0.78800
Zn214      Zn  0.78283621  0.46674514  0.28007351     1.55700
O215        O  0.71490781  0.47006299  0.16959742    -0.80200
Cd216      Cd  0.69897673  0.48569033  0.26116911     1.59700
Cd217      Cd  0.76259834  0.54981530  0.26149140     1.59600
O218        O  0.67156142  0.53262158  0.27848659    -0.80200
O219        O  0.75190676  0.49693899  0.24987924    -1.90700
Cd220      Cd  0.76285498  0.48574711  0.19681071     1.59900
O221        O  0.71427608  0.57640113  0.27663683    -0.80100
O222        O  0.80336902  0.44496664  0.19137260    -0.78800
C223        C  0.81644952  0.53030364  0.32307955     0.83800
C224        C  0.71946125  0.42412187  0.31421574     0.83400
O225        O  0.81946063  0.43886495  0.25021467    -0.77700
C226        C  0.68152965  0.46599114  0.17973893     0.84200
O227        O  0.81038364  0.49640737  0.31719969    -0.77800
C228        C  0.68099623  0.56622971  0.28163671     0.84400
C229        C  0.78546628  0.56677852  0.18118951     0.84700
O230        O  0.78091854  0.57649934  0.21463594    -0.80200
O231        O  0.43833878  0.93345428  0.49717371    -0.77700
C232        C  0.43480573  0.02511446  0.42442434     0.83300
O233        O  0.56198600  0.94877124  0.44087620    -0.78900
O234        O  0.53289347  0.07749826  0.47139274    -0.80300
O235        O  0.48035597  0.03103040  0.57779082    -0.80100
O236        O  0.45312578  0.94349831  0.55589802    -0.78800
Zn237      Zn  0.47295244  0.96321976  0.46638685     1.55700
O238        O  0.47065839  0.07328377  0.53463104    -0.80200
Cd239      Cd  0.49424059  0.98328202  0.54935721     1.59700
Cd240      Cd  0.55544290  0.98820440  0.48217088     1.59600
O241        O  0.54294656  0.96519665  0.57306639    -0.80200
O242        O  0.50238069  0.99534188  0.49608158    -1.90700
Cd243      Cd  0.48715320  0.04737036  0.48643900     1.59900
O244        O  0.58440664  0.97108730  0.52818172    -0.80100
O245        O  0.44722855  0.05070743  0.44502353    -0.78800
C246        C  0.53796937  0.92605195  0.42910840     0.83800
C247        C  0.43376659  0.92745775  0.53135316     0.83400
O248        O  0.44354130  0.99163515  0.42944847    -0.77700
C249        C  0.47227512  0.06386937  0.56844934     0.84200
O250        O  0.50434768  0.92813596  0.43849633    -0.77800
C251        C  0.57604409  0.96365689  0.56147806     0.84400
C252        C  0.56691356  0.07051579  0.46653554     0.84700
O253        O  0.57950491  0.03783381  0.46753960    -0.80200
O254        O  0.99822711  0.69082376  0.68426298    -0.77700
C255        C  0.06482580  0.78458784  0.67637919     0.83300
O256        O  0.05440473  0.70127701  0.80517023    -0.78900
O257        O  0.03016856  0.83162343  0.78412044    -0.80300
O258        O  0.91905006  0.78665147  0.72508242    -0.80100
O259        O  0.93933760  0.69952829  0.69786136    -0.78800
Zn260      Zn  0.02901734  0.72103661  0.71744450     1.55700
O261        O  0.96165273  0.83068257  0.72327913    -0.80200
Cd262      Cd  0.94679989  0.73901346  0.73948433     1.59700
Cd263      Cd  0.01340811  0.74109150  0.80139922     1.59600
O264        O  0.92277714  0.72060752  0.78769586    -0.80200
O265        O  0.99997129  0.75152699  0.74884066    -1.90700
Cd266      Cd  0.01063120  0.80464036  0.73736794     1.59900
O267        O  0.96730470  0.72308327  0.82978386    -0.80100
O268        O  0.04877336  0.81012255  0.69428162    -0.78800
C269        C  0.06909477  0.68232459  0.77961312     0.83800
C270        C  0.96438846  0.68437894  0.67857735     0.83400
O271        O  0.05968449  0.75090596  0.68387492    -0.77700
C272        C  0.92819055  0.82019353  0.72047583     0.84200
O273        O  0.06121334  0.68719597  0.74589111    -0.77800
C274        C  0.93392752  0.71685719  0.82081758     0.84400
C275        C  0.03565700  0.82182018  0.81745943     0.84700
O276        O  0.03093568  0.78861954  0.82763774    -0.80200
O277        O  0.44384919  0.82065627  0.25236749    -0.77700
C278        C  0.42913985  0.72219054  0.31822130     0.83300
O279        O  0.56324186  0.80035446  0.29989510    -0.78900
O280        O  0.53640740  0.67157228  0.28117232    -0.80300
O281        O  0.46980489  0.71409985  0.17313943    -0.80100
O282        O  0.44561051  0.80202386  0.19404186    -0.78800
Zn283      Zn  0.47262180  0.78358801  0.28128120     1.55700
O284        O  0.47216778  0.67067279  0.21629752    -0.80200
Cd285      Cd  0.48687271  0.76202521  0.19815829     1.59700
Cd286      Cd  0.55425776  0.76136900  0.25857212     1.59600
O287        O  0.53319804  0.77820479  0.16855679    -0.80200
O288        O  0.50055999  0.75128598  0.25052960    -1.90700
Cd289      Cd  0.48888727  0.69867797  0.26364708     1.59900
O290        O  0.57860197  0.77785328  0.20974996    -0.80100
O291        O  0.44753158  0.69585896  0.30403646    -0.78800
C292        C  0.53944706  0.81512186  0.32096552     0.83800
C293        C  0.43364961  0.82358908  0.21899355     0.83400
O294        O  0.43611605  0.75556405  0.31074342    -0.77700
C295        C  0.46676362  0.68059294  0.18299269     0.84200
O296        O  0.50512196  0.80986573  0.31666724    -0.77800
C297        C  0.56713311  0.78211811  0.17679086     0.84400
C298        C  0.57038256  0.68070470  0.28176551     0.84700
O299        O  0.58063735  0.71324725  0.27375130    -0.80200
O300        O  0.18390000  0.74791446  0.56176647    -0.77700
C301        C  0.18471518  0.67717823  0.46841387     0.83300
O302        O  0.30928367  0.69783485  0.55345803    -0.78900
O303        O  0.28466166  0.72437758  0.42232779    -0.80300
O304        O  0.22276744  0.82994028  0.46670544    -0.80100
O305        O  0.19726271  0.80715136  0.55408701    -0.78800
Zn306      Zn  0.22005741  0.71834216  0.53293362     1.55700
O307        O  0.21998830  0.78631048  0.42394545    -0.80200
Cd308      Cd  0.23865389  0.80232693  0.51441046     1.59700
Cd309      Cd  0.30349593  0.73847431  0.51282616     1.59600
O310        O  0.28581422  0.82886407  0.53217296    -0.80200
O311        O  0.25004261  0.74947998  0.50281828    -1.90700
Cd312      Cd  0.23746179  0.73912115  0.45001067     1.59900
O313        O  0.32989507  0.78644925  0.53004492    -0.80100
O314        O  0.19844215  0.69749008  0.44338748    -0.78800
C315        C  0.28443569  0.68173346  0.57234937     0.83800
C316        C  0.17793721  0.78169365  0.56853173     0.83400
O317        O  0.19177943  0.68254493  0.50229511    -0.77700
C318        C  0.21722028  0.81986234  0.43346886     0.84200
O319        O  0.25039185  0.68830380  0.56766066    -0.77800
C320        C  0.31943992  0.81951040  0.53567929     0.84400
C321        C  0.31831603  0.71938508  0.43093227     0.84700
O322        O  0.32967311  0.72214435  0.46414197    -0.80200
O323        O  0.31093031  0.43708027  0.75384593    -0.77700
C324        C  0.31506101  0.53432675  0.82519125     0.83300
O325        O  0.18984071  0.45005901  0.80588900    -0.78900
O326        O  0.21362437  0.58224642  0.77931707    -0.80300
O327        O  0.27780518  0.53525090  0.67311309    -0.80100
O328        O  0.29708738  0.44490907  0.69470599    -0.78800
Zn329      Zn  0.27936486  0.47051533  0.78376201     1.55700
O330        O  0.27894196  0.57956002  0.71546413    -0.80200
Cd331      Cd  0.25917545  0.48844492  0.70024392     1.59700
Cd332      Cd  0.19667876  0.49097435  0.76642171     1.59600
O333        O  0.20975994  0.47439412  0.67438212    -0.80200
O334        O  0.24937260  0.50109667  0.75339053    -1.90700
Cd335      Cd  0.26116887  0.55425594  0.76364988     1.59900
O336        O  0.16833460  0.47610597  0.71959374    -0.80100
O337        O  0.30024739  0.55956779  0.80581673    -0.78800
C338        C  0.21511953  0.43077510  0.82047951     0.83800
C339        C  0.31445792  0.42803727  0.72018993     0.83400
O340        O  0.30919888  0.50044379  0.81884171    -0.77700
C341        C  0.28291049  0.56877044  0.68221639     0.84200
O342        O  0.24889477  0.43652884  0.81368508    -0.77800
C343        C  0.17659945  0.47185513  0.68578504     0.84400
C344        C  0.18071991  0.57185761  0.78590657     0.84700
O345        O  0.17128748  0.53819849  0.78398796    -0.80200
O346        O  0.49742351  0.44682234  0.92821498    -0.77700
C347        C  0.43410738  0.42772302  0.02873370     0.83300
O348        O  0.44781342  0.56142329  0.94750002    -0.78900
O349        O  0.46915206  0.53719115  0.07721237    -0.80300
O350        O  0.57716779  0.46922690  0.03546793    -0.80100
O351        O  0.55631537  0.44876631  0.94446324    -0.78800
Zn352      Zn  0.46858523  0.47236120  0.96688245     1.55700
O353        O  0.53353319  0.47365134  0.07825259    -0.80200
Cd354      Cd  0.55168435  0.48716524  0.98740600     1.59700
Cd355      Cd  0.49008186  0.55409142  0.98632910     1.59600
O356        O  0.58010172  0.53390751  0.97173760    -0.80200
O357        O  0.49924516  0.50095492  0.99797179    -1.90700
Cd358      Cd  0.48620373  0.48964743  0.05058522     1.59900
O359        O  0.53847103  0.57872253  0.96864836    -0.80100
O360        O  0.44676230  0.44753743  0.05484633    -0.78800
C361        C  0.42637900  0.53676728  0.93464819     0.83800
C362        C  0.53083074  0.43812916  0.92271836     0.83400
O363        O  0.44194058  0.43435822  0.99530301    -0.77700
C364        C  0.56677053  0.46720649  0.06901343     0.84200
O365        O  0.43119188  0.50293752  0.94170724    -0.77800
C366        C  0.57157278  0.56739429  0.96576790     0.84400
C367        C  0.46844600  0.57093631  0.06757986     0.84700
O368        O  0.47553549  0.58073456  0.03460824    -0.80200
C369        C  0.36168276  0.52744814  0.91734001    -0.11500
C370        C  0.39485208  0.54596912  0.91072715     0.05500
C371        C  0.39889003  0.56633862  0.87793853    -0.06800
C372        C  0.37104881  0.56504534  0.85097953    -0.07600
C373        C  0.33945153  0.54345661  0.85639259    -0.02100
C374        C  0.33417227  0.52594217  0.89059735     0.04700
N375        N  0.30172982  0.50487019  0.89782339     0.67200
H376        H  0.35807246  0.51194737  0.94261706     0.16100
H377        H  0.37544487  0.57852903  0.82471328     0.15800
N378        N  0.43264243  0.58476697  0.86988618     0.74900
O379        O  0.30215149  0.47052926  0.89305184    -0.38500
O380        O  0.27553932  0.51928418  0.91541975    -0.38500
O381        O  0.45686064  0.56894583  0.85073706    -0.39200
O382        O  0.43650230  0.61818293  0.87827485    -0.39200
C383        C  0.29095358  0.61641783  0.58881026    -0.11500
C384        C  0.29410563  0.65322685  0.59945954     0.05500
C385        C  0.29803304  0.66176678  0.63699580    -0.06800
C386        C  0.29673590  0.63364187  0.66340249    -0.07600
C387        C  0.29117244  0.59667774  0.65311569    -0.02100
C388        C  0.28948765  0.58818754  0.61501172     0.04700
N389        N  0.28328893  0.55153356  0.60232108     0.67200
H390        H  0.28710184  0.60968934  0.55993867     0.16100
H391        H  0.29839353  0.64114565  0.69225921     0.15800
N392        N  0.30091691  0.69911530  0.64877952     0.74900
O393        O  0.25077264  0.54013275  0.59787247    -0.38500
O394        O  0.30977025  0.53314842  0.58953316    -0.38500
O395        O  0.27394677  0.71452794  0.66422686    -0.39200
O396        O  0.33155118  0.71538604  0.64730483    -0.39200
C397        C  0.46276255  0.66335130  0.11678791    -0.11500
C398        C  0.45982116  0.65251487  0.15383871     0.05500
C399        C  0.45501448  0.61475182  0.16163961    -0.06800
C400        C  0.45578737  0.58889087  0.13296863    -0.07600
C401        C  0.46144699  0.59961554  0.09614414    -0.02100
C402        C  0.46389881  0.63762197  0.08822709     0.04700
N403        N  0.47007825  0.65075911  0.05167048     0.67200
H404        H  0.46636591  0.69204903  0.10975166     0.16100
H405        H  0.45331634  0.56006253  0.13993424     0.15800
N406        N  0.45047948  0.60192621  0.19853785     0.74900
O407        O  0.44311971  0.66062256  0.03212629    -0.38500
O408        O  0.50237946  0.65830799  0.04139924    -0.38500
O409        O  0.41878451  0.60114095  0.21266472    -0.39200
O410        O  0.47687126  0.58620938  0.21472698    -0.39200
C411        C  0.40531571  0.69564531  0.37696789    -0.11500
C412        C  0.39878760  0.71508547  0.34424446     0.05500
C413        C  0.36456115  0.73253681  0.33914359    -0.06800
C414        C  0.33804968  0.73131748  0.36689084    -0.07600
C415        C  0.34506084  0.71367405  0.40056543    -0.02100
C416        C  0.37882445  0.69493288  0.40522350     0.04700
N417        N  0.38666021  0.67536646  0.43844126     0.67200
H418        H  0.43167904  0.68233420  0.38126030     0.16100
H419        H  0.31248832  0.74614915  0.36270146     0.15800
N420        N  0.35689134  0.75289937  0.30634973     0.74900
O421        O  0.36872204  0.64669612  0.44619138    -0.38500
O422        O  0.41397599  0.68436386  0.45794946    -0.38500
O423        O  0.34221761  0.73698518  0.27918827    -0.39200
O424        O  0.35929312  0.78749112  0.30664550    -0.39200
C425        C  0.12207637  0.81307767  0.65110665    -0.11500
C426        C  0.08972326  0.79271818  0.64540865     0.05500
C427        C  0.08500293  0.77358085  0.61198559    -0.06800
C428        C  0.11342005  0.77257120  0.58629983    -0.07600
C429        C  0.14686708  0.79040020  0.59307393    -0.02100
C430        C  0.15083371  0.81187850  0.62517682     0.04700
N431        N  0.18523139  0.82883609  0.63381126     0.67200
H432        H  0.12632976  0.82724054  0.67705131     0.16100
H433        H  0.10994094  0.75621056  0.56153648     0.15800
N434        N  0.05235954  0.75279804  0.60494062     0.74900
O435        O  0.18882585  0.86316493  0.63066972    -0.38500
O436        O  0.21029841  0.81029041  0.64907012    -0.38500
O437        O  0.02465979  0.76840751  0.59100972    -0.39200
O438        O  0.05347893  0.71819069  0.60649623    -0.39200
C439        C  0.11512522  0.58999884  0.78278281    -0.11500
C440        C  0.15141716  0.59954042  0.79240877     0.05500
C441        C  0.15907321  0.63631058  0.80260940    -0.06800
C442        C  0.13111671  0.66288769  0.80061558    -0.07600
C443        C  0.09577152  0.65341765  0.78844053    -0.02100
C444        C  0.08765473  0.61660743  0.78007567     0.04700
N445        N  0.05204149  0.60620214  0.76688527     0.67200
H446        H  0.10840691  0.56211364  0.77472540     0.16100
H447        H  0.13742170  0.69128445  0.80709744     0.15800
N448        N  0.19505296  0.64720699  0.81436008     0.74900
O449        O  0.04530841  0.60711387  0.73280477    -0.38500
O450        O  0.02966454  0.59058993  0.78832755    -0.38500
O451        O  0.21171526  0.67278810  0.79785509    -0.39200
O452        O  0.20837438  0.63422014  0.84369672    -0.39200
C453        C  0.53586577  0.86054361  0.41290023    -0.11500
C454        C  0.54817599  0.89594323  0.40408796     0.05500
C455        C  0.56483390  0.90233429  0.36960912    -0.06800
C456        C  0.56615030  0.87384501  0.34348514    -0.07600
C457        C  0.55058522  0.83942547  0.35134836    -0.02100
C458        C  0.53715324  0.83231249  0.38697760     0.04700
N459        N  0.52254017  0.79703322  0.39632283     0.67200
H460        H  0.52345561  0.85524776  0.43953600     0.16100
H461        H  0.57583068  0.87974999  0.31588079     0.15800
N462        N  0.57609665  0.93848056  0.35909274     0.74900
O463        O  0.54413697  0.77085609  0.40347186    -0.38500
O464        O  0.48844771  0.79316312  0.40166206    -0.38500
O465        O  0.60938287  0.94469204  0.35144072    -0.39200
O466        O  0.55214820  0.96264939  0.35229552    -0.39200
C467        C  0.36816402  0.91213395  0.54013303    -0.11500
C468        C  0.40496087  0.90104652  0.54180533     0.05500
C469        C  0.41324494  0.86371140  0.54716157    -0.06800
C470        C  0.38476682  0.83769709  0.54811886    -0.07600
C471        C  0.34772330  0.84827181  0.54368127    -0.02100
C472        C  0.33952843  0.88635712  0.54167604     0.04700
N473        N  0.30249533  0.89936822  0.53914167     0.67200
H474        H  0.36163462  0.94091392  0.53611043     0.16100
H475        H  0.39197814  0.80889522  0.55017221     0.15800
N476        N  0.45058200  0.85152866  0.54874280     0.74900
O477        O  0.28307752  0.90155403  0.56783839    -0.38500
O478        O  0.29110281  0.91358460  0.50956612    -0.38500
O479        O  0.46469282  0.84303830  0.57932760    -0.39200
O480        O  0.46772534  0.84461376  0.51936048    -0.39200
C481        C  0.61513566  0.46211977  0.16223345    -0.11500
C482        C  0.65224000  0.45911392  0.15164923     0.05500
C483        C  0.66017819  0.45358409  0.11392856    -0.06800
C484        C  0.63170985  0.45403421  0.08782643    -0.07600
C485        C  0.59485025  0.45973054  0.09817537    -0.02100
C486        C  0.58665049  0.46238815  0.13620535     0.04700
N487        N  0.54978681  0.46725482  0.14900881     0.67200
H488        H  0.60799749  0.46592394  0.19096105     0.16100
H489        H  0.63889731  0.45125261  0.05899557     0.15800
N490        N  0.69707042  0.44866698  0.10131694     0.74900
O491        O  0.52953379  0.43955709  0.15415730    -0.38500
O492        O  0.53943644  0.49835686  0.16031851    -0.38500
O493        O  0.71065210  0.41680148  0.10011276    -0.39200
O494        O  0.71360033  0.47489996  0.08575687    -0.39200
C495        C  0.66299039  0.63198425  0.28987069    -0.11500
C496        C  0.65236208  0.59484203  0.28881687     0.05500
C497        C  0.61433149  0.58650554  0.29098912    -0.06800
C498        C  0.58823347  0.61490747  0.29115656    -0.07600
C499        C  0.59887020  0.65203683  0.28938058    -0.02100
C500        C  0.63695140  0.66036517  0.29044179     0.04700
N501        N  0.64989026  0.69748206  0.29109368     0.67200
H502        H  0.69189558  0.63935016  0.28915978     0.16100
H503        H  0.55931040  0.60757486  0.29093012     0.15800
N504        N  0.60143463  0.54940618  0.29133539     0.74900
O505        O  0.64714988  0.71617016  0.32022380    -0.38500
O506        O  0.66821116  0.70992564  0.26435240    -0.38500
O507        O  0.59458127  0.53391835  0.32163953    -0.39200
O508        O  0.59135241  0.53438094  0.26167638    -0.39200
C509        C  0.18964005  0.37484737  0.90437288    -0.11500
C510        C  0.20845261  0.34216527  0.89626594     0.05500
C511        C  0.22355505  0.33717397  0.86093474    -0.06800
C512        C  0.22234013  0.36576754  0.83563503    -0.07600
C513        C  0.20644844  0.39953287  0.84454032    -0.02100
C514        C  0.18856442  0.40370814  0.87869754     0.04700
N515        N  0.17274468  0.43811620  0.88894231     0.67200
H516        H  0.17807726  0.37905052  0.93183828     0.16100
H517        H  0.23593243  0.36213297  0.80875520     0.15800
N518        N  0.24166771  0.30371780  0.85115606     0.74900
O519        O  0.13923903  0.44434371  0.88230634    -0.38500
O520        O  0.19089217  0.46032255  0.90853203    -0.38500
O521        O  0.22322636  0.27755086  0.83774423    -0.39200
O522        O  0.27636576  0.30245173  0.85038937    -0.39200
C523        C  0.41396222  0.36524687  0.01271360    -0.11500
C524        C  0.40975224  0.39589212  0.03568990     0.05500
C525        C  0.37941527  0.39724841  0.05989111    -0.06800
C526        C  0.35239961  0.36950500  0.05841014    -0.07600
C527        C  0.35532389  0.34053174  0.03301817    -0.02100
C528        C  0.38728050  0.33780628  0.01114678     0.04700
N529        N  0.39251596  0.30781101  0.98625611     0.67200
H530        H  0.43749991  0.36339914  0.99439349     0.16100
H531        H  0.32798956  0.37189304  0.07544053     0.15800
N532        N  0.37390076  0.42816808  0.08342781     0.74900
O533        O  0.38644758  0.31232256  0.95233867    -0.38500
O534        O  0.40989488  0.27975405  0.99689661    -0.38500
O535        O  0.35106597  0.45270975  0.07451407    -0.39200
O536        O  0.38800995  0.42845510  0.11517663    -0.39200
C537        C  0.62319798  0.65707358  0.94980697    -0.11500
C538        C  0.65923353  0.64696778  0.95966024     0.05500
C539        C  0.66683921  0.60929693  0.96576357    -0.06800
C540        C  0.63821445  0.58356700  0.96502868    -0.07600
C541        C  0.60164756  0.59418908  0.95819375    -0.02100
C542        C  0.59463379  0.63120802  0.94874919     0.04700
N543        N  0.55856313  0.64328489  0.93879241     0.67200
H544        H  0.61672040  0.68554825  0.94396244     0.16100
H545        H  0.64461029  0.55529110  0.97185202     0.15800
N546        N  0.70294492  0.59678986  0.97512559     0.74900
O547        O  0.54022884  0.66280069  0.96084590    -0.38500
O548        O  0.54744510  0.63921647  0.90612387    -0.38500
O549        O  0.71093420  0.59032338  0.00831933    -0.39200
O550        O  0.72467136  0.58676779  0.94999040    -0.39200
C551        C  0.61504927  0.78467864  0.08333565    -0.11500
C552        C  0.65214046  0.78856029  0.09386224     0.05500
C553        C  0.66000591  0.79572893  0.13135940    -0.06800
C554        C  0.63158045  0.79593863  0.15737589    -0.07600
C555        C  0.59480419  0.78930215  0.14724647    -0.02100
C556        C  0.58654643  0.78514965  0.10936368     0.04700
N557        N  0.54967419  0.77935801  0.09686306     0.67200
H558        H  0.60799068  0.77965354  0.05475567     0.16100
H559        H  0.63876693  0.79994864  0.18608957     0.15800
N560        N  0.69683863  0.80144356  0.14394952     0.74900
O561        O  0.52859040  0.80650899  0.09228845    -0.38500
O562        O  0.53996109  0.74806969  0.08543654    -0.38500
O563        O  0.70991970  0.83355135  0.14480936    -0.39200
O564        O  0.71390067  0.77562513  0.15963544    -0.39200
C565        C  0.79784503  0.61599067  0.08945645    -0.11500
C566        C  0.79520894  0.65303173  0.10019704     0.05500
C567        C  0.79593586  0.66129945  0.13827598    -0.06800
C568        C  0.79488597  0.63272444  0.16418864    -0.07600
C569        C  0.79412753  0.59561920  0.15326830    -0.02100
C570        C  0.79761872  0.58751351  0.11535552     0.04700
N571        N  0.79930303  0.55051345  0.10233513     0.67200
H572        H  0.79840206  0.60870785  0.06051938     0.16100
H573        H  0.79352121  0.63985591  0.19313169     0.15800
N574        N  0.79688427  0.69842446  0.15123906     0.74900
O575        O  0.77118213  0.53596816  0.08804360    -0.38500
O576        O  0.83007136  0.53471080  0.09962716    -0.38500
O577        O  0.77209563  0.70996543  0.17261325    -0.39200
O578        O  0.82508722  0.71789424  0.14563852    -0.39200
C579        C  0.88710242  0.70700950  0.91407387    -0.11500
C580        C  0.85021842  0.70510896  0.90331779     0.05500
C581        C  0.84133624  0.70184642  0.86585957    -0.06800
C582        C  0.86935374  0.70262497  0.83947328    -0.07600
C583        C  0.90646037  0.70746627  0.84979881    -0.02100
C584        C  0.91527271  0.70806835  0.88785347     0.04700
N585        N  0.95223641  0.71265211  0.90049343     0.67200
H586        H  0.89398409  0.71003755  0.94300153     0.16100
H587        H  0.86161143  0.70180171  0.81064745     0.15800
N588        N  0.80380603  0.70074445  0.85413881     0.74900
O589        O  0.96206834  0.74298928  0.91415217    -0.38500
O590        O  0.97266395  0.68488505  0.90421110    -0.38500
O591        O  0.78728763  0.73018937  0.84622919    -0.39200
O592        O  0.78862486  0.67026194  0.84753945    -0.39200
C593        C  0.51605275  0.38824543  0.83338098    -0.11500
C594        C  0.53748036  0.35666334  0.83849377     0.05500
C595        C  0.56224028  0.35525650  0.86841556    -0.06800
C596        C  0.56265990  0.38399761  0.89439617    -0.07600
C597        C  0.53867376  0.41408318  0.89077017    -0.02100
C598        C  0.51681569  0.41701696  0.85872966     0.04700
N599        N  0.49430318  0.44865781  0.85220948     0.67200
H600        H  0.49773758  0.39020358  0.80982711     0.16100
H601        H  0.57950234  0.38128622  0.91892353     0.15800
N602        N  0.58415192  0.32333240  0.87485020     0.74900
O603        O  0.50902736  0.47984694  0.84845637    -0.38500
O604        O  0.46012296  0.44505658  0.84711050    -0.38500
O605        O  0.61849735  0.32466166  0.86998328    -0.39200
O606        O  0.56992950  0.29534483  0.88961609    -0.39200
C607        C  0.47139774  0.11438781  0.66088500    -0.11500
C608        C  0.46468934  0.15090946  0.65003290     0.05500
C609        C  0.45699340  0.15778019  0.61248505    -0.06800
C610        C  0.45820870  0.12888403  0.58680696    -0.07600
C611        C  0.46679434  0.09264046  0.59743497    -0.02100
C612        C  0.47288064  0.08559780  0.63530281     0.04700
N613        N  0.48293944  0.04988819  0.64826328     0.67200
H614        H  0.47762881  0.10812727  0.68940628     0.16100
H615        H  0.45298205  0.13517750  0.55809651     0.15800
N616        N  0.44802554  0.19388091  0.59981298     0.74900
O617        O  0.51621209  0.04001371  0.64716506    -0.38500
O618        O  0.46020362  0.03131463  0.66676998    -0.38500
O619        O  0.46800559  0.20937676  0.57602385    -0.39200
O620        O  0.41768792  0.20819452  0.60869778    -0.39200
C621        C  0.38504939  0.21960836  0.91249363    -0.11500
C622        C  0.35134320  0.20258079  0.90460660     0.05500
C623        C  0.34669742  0.18480489  0.87042126    -0.06800
C624        C  0.37481876  0.18679880  0.84376443    -0.07600
C625        C  0.40728856  0.20667499  0.85083412    -0.02100
C626        C  0.41277493  0.22193821  0.88605869     0.04700
N627        N  0.44575192  0.24157756  0.89477228     0.67200
H628        H  0.38897389  0.23331096  0.93867100     0.16100
H629        H  0.37014886  0.17519182  0.81670697     0.15800
N630        N  0.31241947  0.16797346  0.86110238     0.74900
O631        O  0.44615331  0.27619625  0.89290168    -0.38500
O632        O  0.47200941  0.22502693  0.91030559    -0.38500
O633        O  0.28952223  0.18504772  0.84136516    -0.39200
O634        O  0.30716975  0.13448309  0.86835345    -0.39200
C635        C  0.36323646  0.33790875  0.73388168    -0.11500
C636        C  0.39290557  0.34054335  0.70937431     0.05500
C637        C  0.39326402  0.36959168  0.68353249    -0.06800
C638        C  0.36582636  0.39708445  0.68505808    -0.07600
C639        C  0.33818335  0.39584590  0.71213677    -0.02100
C640        C  0.33613864  0.36488324  0.73537493     0.04700
N641        N  0.30686201  0.36081800  0.76133664     0.67200
H642        H  0.36172833  0.31521829  0.75316850     0.16100
H643        H  0.36765356  0.42059373  0.66686519     0.15800
N644        N  0.42275308  0.37327329  0.65784258     0.74900
O645        O  0.27524150  0.35174575  0.75018909    -0.38500
O646        O  0.31372230  0.36104330  0.79540649    -0.38500
O647        O  0.41703631  0.36741088  0.62408264    -0.39200
O648        O  0.45294980  0.38707357  0.66805390    -0.39200
C649        C  0.08422488  0.47884170  0.63724779    -0.11500
C650        C  0.09222511  0.46358009  0.60280658     0.05500
C651        C  0.12683066  0.44719678  0.59703382    -0.06800
C652        C  0.15370852  0.44873556  0.62485118    -0.07600
C653        C  0.14641931  0.46601625  0.65873591    -0.02100
C654        C  0.11071110  0.48022476  0.66512448     0.04700
N655        N  0.10187034  0.49948593  0.69828578     0.67200
H656        H  0.05778746  0.49194891  0.64178852     0.16100
H657        H  0.18078887  0.43744829  0.61944506     0.15800
N658        N  0.13604493  0.43167841  0.56213543     0.74900
O659        O  0.11282672  0.53211529  0.70262411    -0.38500
O660        O  0.07840136  0.48626865  0.72018219    -0.38500
O661        O  0.15360237  0.45056178  0.53890826    -0.39200
O662        O  0.13131376  0.39777893  0.55662393    -0.39200
C663        C  0.87515061  0.55776888  0.34531001    -0.11500
C664        C  0.84196138  0.53970450  0.35319446     0.05500
C665        C  0.83645949  0.52481241  0.38851000    -0.06800
C666        C  0.86460807  0.52645397  0.41463555    -0.07600
C667        C  0.89895922  0.54212506  0.40617477    -0.02100
C668        C  0.90376179  0.55885755  0.37138289     0.04700
N669        N  0.93775814  0.57604164  0.36173448     0.67200
H670        H  0.87975139  0.56904248  0.31804941     0.16100
H671        H  0.86008732  0.51338993  0.44109526     0.15800
N672        N  0.80287281  0.50645529  0.39765810     0.74900
O673        O  0.96051452  0.55921051  0.34167467    -0.38500
O674        O  0.94243628  0.60975202  0.36834779    -0.38500
O675        O  0.80269022  0.47213047  0.40256370    -0.39200
O676        O  0.77463070  0.52501398  0.40546629    -0.39200
C677        C  0.10338562  0.62082251  0.43441127    -0.11500
C678        C  0.10722086  0.58958171  0.45680580     0.05500
C679        C  0.13980124  0.58500676  0.47744955    -0.06800
C680        C  0.16571630  0.61320700  0.47885632    -0.07600
C681        C  0.16049366  0.64589019  0.45921618    -0.02100
C682        C  0.13001809  0.64895471  0.43527662     0.04700
N683        N  0.12383772  0.68186085  0.41478172     0.67200
H684        H  0.07837993  0.62475933  0.41853413     0.16100
H685        H  0.18960995  0.61004617  0.49656614     0.15800
N686        N  0.14604491  0.55238789  0.49853637     0.74900
O687        O  0.13408934  0.68378218  0.38166490    -0.38500
O688        O  0.10415375  0.70706627  0.42817703    -0.38500
O689        O  0.15418618  0.52281946  0.48235824    -0.39200
O690        O  0.14793794  0.55411386  0.53318985    -0.39200
C691        C  0.97243148  0.66812211  0.61368800    -0.11500
C692        C  0.95568146  0.65994199  0.64738852     0.05500
C693        C  0.93701722  0.62621092  0.65152639    -0.06800
C694        C  0.93810652  0.60020195  0.62280859    -0.07600
C695        C  0.95829463  0.60725526  0.59053945    -0.02100
C696        C  0.97413606  0.64221155  0.58551062     0.04700
N697        N  0.99340774  0.65117691  0.55241475     0.67200
H698        H  0.98606090  0.69450031  0.60989533     0.16100
H699        H  0.92593095  0.57323498  0.62708678     0.15800
N700        N  0.92027164  0.61657043  0.68577969     0.74900
O701        O  0.97566790  0.66191846  0.52455388    -0.38500
O702        O  0.02804994  0.65364241  0.55272656    -0.38500
O703        O  0.88591502  0.61181907  0.68745877    -0.39200
O704        O  0.94014608  0.60810026  0.71299596    -0.39200
C705        C  0.37686323  0.05364096  0.40131762    -0.11500
C706        C  0.40898546  0.03352934  0.39415125     0.05500
C707        C  0.41369262  0.01732979  0.35922190    -0.06800
C708        C  0.38577771  0.01993870  0.33285492    -0.07600
C709        C  0.35251682  0.03798917  0.34064562    -0.02100
C710        C  0.34853743  0.05574949  0.37501473     0.04700
N711        N  0.31568430  0.07535019  0.38387028     0.67200
H712        H  0.37290067  0.06613973  0.42813863     0.16100
H713        H  0.38950270  0.00597304  0.30672997     0.15800
N714        N  0.44638104  0.99727120  0.35049303     0.74900
O715        O  0.29315664  0.06196395  0.40663462    -0.38500
O716        O  0.31187177  0.10811298  0.37320006    -0.38500
O717        O  0.44481508  0.96298042  0.34557616    -0.39200
O718        O  0.47566647  0.01435646  0.34304541    -0.39200
C719        C  0.30300078  0.09590472  0.12299572    -0.11500
C720        C  0.28255990  0.10260730  0.15507604     0.05500
C721        C  0.26503507  0.13682948  0.15953378    -0.06800
C722        C  0.26742650  0.16327607  0.13187286    -0.07600
C723        C  0.28605030  0.15605529  0.09882357    -0.02100
C724        C  0.30473539  0.12224105  0.09463950     0.04700
N725        N  0.32519322  0.11422788  0.06186951     0.67200
H726        H  0.31644982  0.06957062  0.11936679     0.16100
H727        H  0.25255115  0.18886015  0.13543452     0.15800
N728        N  0.24343171  0.14460461  0.19148602     0.74900
O729        O  0.34770846  0.13742636  0.04920151    -0.38500
O730        O  0.32269082  0.08301681  0.04692164    -0.38500
O731        O  0.25763711  0.16192409  0.21802395    -0.39200
O732        O  0.20900756  0.14005717  0.19045218    -0.39200
C733        C  0.20878026  0.86752312  0.34035317    -0.11500
C734        C  0.21037163  0.90474361  0.35051641     0.05500
C735        C  0.20870861  0.91359985  0.38845046    -0.06800
C736        C  0.20861379  0.88553138  0.41491067    -0.07600
C737        C  0.21001499  0.84828280  0.40470023    -0.02100
C738        C  0.20866775  0.83950136  0.36671675     0.04700
N739        N  0.20945695  0.80231647  0.35409885     0.67200
H740        H  0.20946998  0.85974232  0.31153173     0.16100
H741        H  0.20894956  0.89318980  0.44377302     0.15800
N742        N  0.20849798  0.95087297  0.40081865     0.74900
O743        O  0.17965244  0.78566449  0.34774919    -0.38500
O744        O  0.23948450  0.78833613  0.34374225    -0.38500
O745        O  0.17828320  0.96753818  0.40441838    -0.39200
O746        O  0.23754855  0.96498142  0.41363054    -0.39200
C747        C  0.38443282  0.91468194  0.21900268    -0.11500
C748        C  0.34823092  0.90417503  0.21001274     0.05500
C749        C  0.34170242  0.86739398  0.19916771    -0.06800
C750        C  0.37074296  0.84186614  0.19912447    -0.07600
C751        C  0.40626220  0.85221249  0.21023522    -0.02100
C752        C  0.41314922  0.88911187  0.21948906     0.04700
N753        N  0.44906140  0.90070607  0.23070662     0.67200
H754        H  0.39033320  0.94259752  0.22752384     0.16100
H755        H  0.36503759  0.81340275  0.19248445     0.15800
N756        N  0.30564810  0.85522102  0.18924851     0.74900
O757        O  0.47411361  0.90460528  0.20699940    -0.38500
O758        O  0.45463204  0.91088765  0.26345367    -0.38500
O759        O  0.29524244  0.85733205  0.15616973    -0.39200
O760        O  0.28665831  0.83725609  0.21208441    -0.39200
C761        C  0.83484268  0.86784716  0.71329992    -0.11500
C762        C  0.84521808  0.90498334  0.71058728     0.05500
C763        C  0.88302384  0.91331631  0.70628878    -0.06800
C764        C  0.90931947  0.88516424  0.70798287    -0.07600
C765        C  0.89904789  0.84828217  0.71350123    -0.02100
C766        C  0.86104848  0.83972691  0.71492303     0.04700
N767        N  0.84835451  0.80293061  0.72024789     0.67200
H768        H  0.80609574  0.86042192  0.71624657     0.16100
H769        H  0.93815010  0.89255229  0.70589845     0.15800
N770        N  0.89543598  0.95024778  0.70118353     0.74900
O771        O  0.84322913  0.79104211  0.75247796    -0.38500
O772        O  0.83621816  0.78488366  0.69316989    -0.38500
O773        O  0.91369521  0.96600647  0.72619597    -0.39200
O774        O  0.89247604  0.96522101  0.66998907    -0.39200
C775        C  0.58432524  0.11696243  0.79378332    -0.11500
C776        C  0.59565879  0.15403209  0.79290481     0.05500
C777        C  0.63382283  0.16180286  0.79585348    -0.06800
C778        C  0.65934856  0.13291957  0.79607252    -0.07600
C779        C  0.64778866  0.09629570  0.79425017    -0.02100
C780        C  0.61000280  0.08828385  0.79433236     0.04700
N781        N  0.59741081  0.05111662  0.79290974     0.67200
H782        H  0.55537295  0.10994439  0.79209451     0.16100
H783        H  0.68853960  0.13921517  0.79585128     0.15800
N784        N  0.64739271  0.19868408  0.79681023     0.74900
O785        O  0.59422232  0.03290836  0.82229030    -0.38500
O786        O  0.58538715  0.03799678  0.76307455    -0.38500
O787        O  0.64324096  0.21773762  0.82552882    -0.39200
O788        O  0.66881645  0.20982288  0.77187056    -0.39200
C789        C  0.62719614  0.94109772  0.65004959    -0.11500
C790        C  0.65998538  0.96050566  0.64424479     0.05500
C791        C  0.66701431  0.97588401  0.60937742    -0.06800
C792        C  0.64038715  0.97370466  0.58170139    -0.07600
C793        C  0.60622233  0.95681229  0.58818117    -0.02100
C794        C  0.60027217  0.93909106  0.62234447     0.04700
N795        N  0.56673766  0.91985166  0.62962726     0.67200
H796        H  0.62164249  0.92909356  0.67681684     0.16100
H797        H  0.64571584  0.98743917  0.55573927     0.15800
N798        N  0.70055860  0.99517893  0.60223624     0.74900
O799        O  0.55963433  0.89045889  0.61260979    -0.38500
O800        O  0.54613814  0.93003755  0.65563990    -0.38500
O801        O  0.72941349  0.97743319  0.59477454    -0.39200
O802        O  0.70024811  0.02965589  0.59858242    -0.39200
C803        C  0.71624307  0.91196664  0.88549415    -0.11500
C804        C  0.70821412  0.90287664  0.84865498     0.05500
C805        C  0.69938952  0.86582015  0.84029344    -0.06800
C806        C  0.70120966  0.83880784  0.86795366    -0.07600
C807        C  0.71181195  0.84790525  0.90392554    -0.02100
C808        C  0.71867385  0.88490381  0.91276704     0.04700
N809        N  0.72994056  0.89516013  0.94906934     0.67200
H810        H  0.72318957  0.93997601  0.89293720     0.16100
H811        H  0.69601053  0.81032020  0.86087442     0.15800
N812        N  0.68969661  0.85488860  0.80374555     0.74900
O813        O  0.76342914  0.89300242  0.95804547    -0.38500
O814        O  0.70766178  0.91156517  0.96998865    -0.38500
O815        O  0.71078376  0.83402829  0.78575649    -0.39200
O816        O  0.65809272  0.86216763  0.79132023    -0.39200
C817        C  0.61485088  0.16119068  0.48389677    -0.11500
C818        C  0.64787448  0.15670638  0.46449765     0.05500
C819        C  0.65246705  0.12539312  0.44212442    -0.06800
C820        C  0.62531188  0.09782546  0.44198628    -0.07600
C821        C  0.59298878  0.10161390  0.46292799    -0.02100
C822        C  0.58755084  0.13421101  0.48337417     0.04700
N823        N  0.55614174  0.13889085  0.50666509     0.67200
H824        H  0.61093971  0.18516082  0.50121198     0.16100
H825        H  0.62980927  0.07307469  0.42601065     0.15800
N826        N  0.68534158  0.12020727  0.42123295     0.74900
O827        O  0.55404076  0.12135040  0.53656763    -0.38500
O828        O  0.53350148  0.16435097  0.50016910    -0.38500
O829        O  0.70827343  0.09602338  0.43084742    -0.39200
O830        O  0.68869201  0.13570570  0.39034407    -0.39200
C831        C  0.88203238  0.34213843  0.54088066    -0.11500
C832        C  0.84505651  0.35331309  0.53786692     0.05500
C833        C  0.83732426  0.39139898  0.53787500    -0.06800
C834        C  0.86618065  0.41691315  0.53873500    -0.07600
C835        C  0.90324935  0.40569091  0.53915962    -0.02100
C836        C  0.91090962  0.36768140  0.54147395     0.04700
N837        N  0.94783884  0.35428583  0.54298617     0.67200
H838        H  0.88894231  0.31318444  0.54136280     0.16100
H839        H  0.85927829  0.44583242  0.53719963     0.15800
N840        N  0.80049616  0.40489376  0.53517415     0.74900
O841        O  0.96431501  0.35251616  0.57352766    -0.38500
O842        O  0.96195514  0.33947912  0.51494419    -0.38500
O843        O  0.78307294  0.41303803  0.56406332    -0.39200
O844        O  0.78791125  0.41450833  0.50424542    -0.39200
C845        C  0.72416204  0.33270313  0.36228562    -0.11500
C846        C  0.70770503  0.34100176  0.39624540     0.05500
C847        C  0.69010332  0.37534114  0.40068622    -0.06800
C848        C  0.69140450  0.40138985  0.37221517    -0.07600
C849        C  0.71056933  0.39392936  0.33959929    -0.02100
C850        C  0.72624585  0.35894877  0.33435930     0.04700
N851        N  0.74612388  0.35038298  0.30151115     0.67200
H852        H  0.73800382  0.30662601  0.35824367     0.16100
H853        H  0.67937490  0.42830852  0.37651631     0.15800
N854        N  0.67191587  0.38458073  0.43429067     0.74900
O855        O  0.78070691  0.35358223  0.30103926    -0.38500
O856        O  0.73010993  0.33361388  0.27565495    -0.38500
O857        O  0.68566563  0.40843737  0.45544461    -0.39200
O858        O  0.64003149  0.37235547  0.44055419    -0.39200
C859        C  0.66184344  0.29649263  0.63402786    -0.11500
C860        C  0.65141683  0.30249580  0.59747709     0.05500
C861        C  0.61407134  0.30842726  0.58916581    -0.06800
C862        C  0.58753022  0.30554579  0.61714904    -0.07600
C863        C  0.59761813  0.29709872  0.65368202    -0.02100
C864        C  0.63565830  0.29416667  0.66213570     0.04700
N865        N  0.64825813  0.28560599  0.69841559     0.67200
H866        H  0.69051907  0.29117699  0.64050075     0.16100
H867        H  0.55874256  0.30842238  0.60983215     0.15800
N868        N  0.60254054  0.31462513  0.55202226     0.74900
O869        O  0.66208226  0.25446742  0.70483202    -0.38500
O870        O  0.65167649  0.31093781  0.72189049    -0.38500
O871        O  0.58058649  0.29255861  0.53661571    -0.39200
O872        O  0.61193534  0.34371270  0.53561755    -0.39200
C873        C  0.76330467  0.14020361  0.66744301    -0.11500
C874        C  0.78692463  0.10998750  0.66379301     0.05500
C875        C  0.81299851  0.10989954  0.63498241    -0.06800
C876        C  0.81217457  0.13795517  0.60821386    -0.07600
C877        C  0.78602496  0.16632952  0.61031667    -0.02100
C878        C  0.76288544  0.16830567  0.64142114     0.04700
N879        N  0.73775380  0.19817188  0.64625127     0.67200
H880        H  0.74386875  0.14134595  0.69006501     0.16100
H881        H  0.83035412  0.13626663  0.58463719     0.15800
N882        N  0.83822015  0.08012365  0.63082856     0.74900
O883        O  0.70355350  0.19268906  0.64361503    -0.38500
O884        O  0.74940190  0.22865988  0.65801727    -0.38500
O885        O  0.83244994  0.05585307  0.60669990    -0.39200
O886        O  0.86851700  0.08070339  0.64782504    -0.39200
C887        C  0.14960463  0.12007037  0.31482172    -0.11500
C888        C  0.14394209  0.08799806  0.29400374     0.05500
C889        C  0.10993484  0.08290518  0.27592467    -0.06800
C890        C  0.08399957  0.11105291  0.27572125    -0.07600
C891        C  0.09083174  0.14439018  0.29368757    -0.02100
C892        C  0.12311412  0.14829824  0.31491199     0.04700
N893        N  0.13099140  0.18201735  0.33341482     0.67200
H894        H  0.17571502  0.12443433  0.32867281     0.16100
H895        H  0.05890058  0.10746451  0.25987524     0.15800
N896        N  0.10217089  0.04990071  0.25598075     0.74900
O897        O  0.11995234  0.18684113  0.36597366    -0.38500
O898        O  0.15251159  0.20506751  0.31893480    -0.38500
O899        O  0.08910534  0.02249024  0.27274790    -0.39200
O900        O  0.10242093  0.05020337  0.22123725    -0.39200
C901        C  0.87300438  0.34202044  0.19662525    -0.11500
C902        C  0.90859606  0.35013983  0.20972495     0.05500
C903        C  0.91697349  0.38701381  0.21920143    -0.06800
C904        C  0.88940778  0.41383630  0.21804149    -0.07600
C905        C  0.85347859  0.40507716  0.20719957    -0.02100
C906        C  0.84560270  0.36919430  0.19511138     0.04700
N907        N  0.80909261  0.35921933  0.18445218     0.67200
H908        H  0.86591550  0.31412201  0.18897996     0.16100
H909        H  0.89558024  0.44128812  0.22787719     0.15800
N910        N  0.95226294  0.39718273  0.23340977     0.74900
O911        O  0.79946453  0.36171748  0.15116750    -0.38500
O912        O  0.78777960  0.34439004  0.20748210    -0.38500
O913        O  0.97388009  0.41602595  0.21386281    -0.39200
O914        O  0.95932633  0.39250089  0.26711349    -0.39200
C915        C  0.11683455  0.27600152  0.08674474    -0.11500
C916        C  0.15273226  0.28773400  0.09547623     0.05500
C917        C  0.16004616  0.29956271  0.13193196    -0.06800
C918        C  0.13216916  0.29799063  0.15876650    -0.07600
C919        C  0.09722450  0.28402812  0.15013815    -0.02100
C920        C  0.08949221  0.27360901  0.11366115     0.04700
N921        N  0.05416032  0.25934440  0.10381000     0.67200
H922        H  0.11023602  0.26661788  0.05919563     0.16100
H923        H  0.13845634  0.30581669  0.18687597     0.15800
N924        N  0.19581543  0.31200017  0.14253599     0.74900
O925        O  0.02907381  0.28100055  0.09355502    -0.38500
O926        O  0.04977037  0.22514525  0.10013155    -0.38500
O927        O  0.20276697  0.34596303  0.14283491    -0.39200
O928        O  0.21793706  0.28992764  0.15763437    -0.39200
C929        C  0.03642188  0.36752050  0.41224243    -0.11500
C930        C  0.03802907  0.40448086  0.40104787     0.05500
C931        C  0.04247546  0.41201234  0.36308398    -0.06800
C932        C  0.04309184  0.38311015  0.33747750    -0.07600
C933        C  0.03917162  0.34623831  0.34854039    -0.02100
C934        C  0.03681276  0.33867107  0.38672376     0.04700
N935        N  0.03261441  0.30201761  0.40021353     0.67200
H936        H  0.03313464  0.36070026  0.44111910     0.16100
H937        H  0.04524149  0.38988662  0.30848423     0.15800
N938        N  0.04531766  0.44883973  0.34976625     0.74900
O939        O  0.06074564  0.28299674  0.40733440    -0.38500
O940        O  0.00128070  0.29073457  0.41005427    -0.38500
O941        O  0.07664897  0.46316914  0.34548789    -0.39200
O942        O  0.01730240  0.46455521  0.33658930    -0.39200
C943        C  0.91316678  0.22115660  0.38748369    -0.11500
C944        C  0.90325607  0.21182834  0.35122853     0.05500
C945        C  0.86654061  0.20103432  0.34428577    -0.06800
C946        C  0.84038035  0.20204639  0.37272364    -0.07600
C947        C  0.84985700  0.21356333  0.40852082    -0.02100
C948        C  0.88710166  0.22246328  0.41582019     0.04700
N949        N  0.89856522  0.23593636  0.45099023     0.67200
H950        H  0.94106375  0.22984340  0.39365826     0.16100
H951        H  0.81218134  0.19453322  0.36640871     0.15800
N952        N  0.85525882  0.18913653  0.30852116     0.74900
O953        O  0.91632617  0.21524321  0.47245813    -0.38500
O954        O  0.89639797  0.26984827  0.45791248    -0.38500
O955        O  0.86150957  0.15653849  0.29851520    -0.39200
O956        O  0.83460510  0.20929264  0.28923351    -0.39200
C957        C  0.91599426  0.86162861  0.02117540    -0.11500
C958        C  0.90977913  0.89454282  0.04008755     0.05500
C959        C  0.87803465  0.89814581  0.06209370    -0.06800
C960        C  0.85165133  0.86982521  0.06240028    -0.07600
C961        C  0.85672220  0.83815904  0.04090079    -0.02100
C962        C  0.89003777  0.83348178  0.02158195     0.04700
N963        N  0.89705198  0.80085003  0.00077286     0.67200
H964        H  0.94066644  0.85831998  0.00463712     0.16100
H965        H  0.82592131  0.87390295  0.07699327     0.15800
N966        N  0.87033515  0.93180131  0.08075462     0.74900
O967        O  0.89790088  0.80220904  0.96606426    -0.38500
O968        O  0.90728328  0.77200111  0.01707595    -0.38500
O969        O  0.85291658  0.95694475  0.06437792    -0.39200
O970        O  0.87670021  0.93456439  0.11478996    -0.39200
C971        C  0.12641268  0.09271461  0.94883002    -0.11500
C972        C  0.09178783  0.10148654  0.96368716     0.05500
C973        C  0.08499215  0.13803681  0.97489094    -0.06800
C974        C  0.11294151  0.16435470  0.97231219    -0.07600
C975        C  0.14831029  0.15502880  0.95971347    -0.02100
C976        C  0.15450667  0.11905497  0.94663872     0.04700
N977        N  0.18916451  0.10879727  0.93119390     0.67200
H978        H  0.13200212  0.06500445  0.93943992     0.16100
H979        H  0.10757869  0.19164315  0.98299491     0.15800
N980        N  0.05124588  0.14812661  0.99243766     0.74900
O981        O  0.20944235  0.08599646  0.94771884    -0.38500
O982        O  0.19742421  0.11905310  0.89906270    -0.38500
O983        O  0.04528956  0.13852877  0.02529294    -0.39200
O984        O  0.02943749  0.17006527  0.97671901    -0.39200
C985        C  0.04464566  0.88771768  0.83520033    -0.11500
C986        C  0.04515029  0.85040672  0.84550695     0.05500
C987        C  0.05026381  0.84176154  0.88324484    -0.06800
C988        C  0.05064765  0.86986233  0.90963277    -0.07600
C989        C  0.04742193  0.90673774  0.89931786    -0.02100
C990        C  0.04610095  0.91587076  0.86164146     0.04700
N991        N  0.04483597  0.95351496  0.85001792     0.67200
H992        H  0.04176318  0.89520903  0.80644676     0.16100
H993        H  0.05165783  0.86267883  0.93862065     0.15800
N994        N  0.05346031  0.80461287  0.89557329     0.74900
O995        O  0.06760448  0.97636023  0.86291601    -0.38500
O996        O  0.02414174  0.96302993  0.82376935    -0.38500
O997        O  0.08376049  0.78803538  0.89227829    -0.39200
O998        O  0.02832544  0.79066593  0.91502159    -0.39200
C999        C  0.13539551  0.97078180  0.08651932    -0.11500
C1000       C  0.09980757  0.95806414  0.09476660     0.05500
C1001       C  0.09342983  0.94195568  0.12966106    -0.06800
C1002       C  0.12180820  0.94099103  0.15603150    -0.07600
C1003       C  0.15641892  0.95618507  0.14828839    -0.02100
C1004       C  0.16334607  0.97032813  0.11290420     0.04700
N1005       N  0.19811908  0.98656059  0.10419268     0.67200
H1006       H  0.14118149  0.98332932  0.06006224     0.16100
H1007       H  0.11603147  0.93056471  0.18340167     0.15800
N1008       N  0.05810483  0.92759901  0.13917556     0.74900
O1009       O  0.22475656  0.96640472  0.09488243    -0.38500
O1010       O  0.20099459  0.02102419  0.10165073    -0.38500
O1011       O  0.05058776  0.89447617  0.13219381    -0.39200
O1012       O  0.03691910  0.94602773  0.15954679    -0.39200
C1013       C  0.86776688  0.05282220  0.90952653    -0.11500
C1014       C  0.90210069  0.03737967  0.90114453     0.05500
C1015       C  0.90875185  0.02426908  0.86532863    -0.06800
C1016       C  0.88094215  0.02553829  0.83890954    -0.07600
C1017       C  0.84577200  0.03898429  0.84746795    -0.02100
C1018       C  0.83943565  0.05342178  0.88310197     0.04700
N1019       N  0.80424790  0.06767598  0.89322583     0.67200
H1020       H  0.86225442  0.06248907  0.93722537     0.16100
H1021       H  0.88656545  0.01405988  0.81193241     0.15800
N1022       N  0.94326803  0.00794747  0.85588856     0.74900
O1023       O  0.78218696  0.04792481  0.91133721    -0.38500
O1024       O  0.79767735  0.10148011  0.88930892    -0.38500
O1025       O  0.94459175  0.97462447  0.84638196    -0.39200
O1026       O  0.97174651  0.02766058  0.85354880    -0.39200
C1027       C  0.96061906  0.08443158  0.13752841    -0.11500
C1028       C  0.95501928  0.09407529  0.10040885     0.05500
C1029       C  0.94561287  0.13104725  0.09222573    -0.06800
C1030       C  0.94481596  0.15753093  0.12041532    -0.07600
C1031       C  0.95306565  0.14800796  0.15685578    -0.02100
C1032       C  0.95998922  0.11095909  0.16546186     0.04700
N1033       N  0.96884171  0.10030394  0.20228397     0.67200
H1034       H  0.96765540  0.05646336  0.14490229     0.16100
H1035       H  0.94004625  0.18607665  0.11339141     0.15800
N1036       N  0.93861194  0.14268284  0.05531176     0.74900
O1037       O  0.94335715  0.09370015  0.22490045    -0.38500
O1038       O  0.00168158  0.09283049  0.21072920    -0.38500
O1039       O  0.90636849  0.14083743  0.04252515    -0.39200
O1040       O  0.96292721  0.16034893  0.03795040    -0.39200
loop_ 
_geom_bond_atom_site_label_1 
_geom_bond_atom_site_label_2 
_geom_bond_distance 
_geom_bond_site_symmetry_2 
_ccdc_geom_bond_type 
O1           C17   1.271   1_565  A
O1           Zn7   1.993       .  S
C2           O18   1.270       .  A
C2           O15   1.274       .  A
C2          C989   1.473       .  S
O3           C16   1.276       .  A
O3          Cd10   2.092       .  S
O4           C22   1.276       .  A
O4          Cd13   2.063   1_554  S
O5           C19   1.277       .  A
O5           Cd9   2.074   1_455  S
O6           C17   1.275       .  A
O6           Cd9   2.091       .  S
Zn7          O18   2.004   1_655  S
Zn7          O20   1.988       .  S
Zn7          O12   1.919       .  S
O8           C19   1.275       .  A
O8          Cd13   2.062   1_545  S
Cd9          O11   2.081   1_556  S
Cd9          O12   2.012   1_545  S
Cd10         O14   2.087   1_565  S
Cd10         O23   2.091   1_655  S
Cd10         O12   2.017   1_554  S
O11          C21   1.276       .  A
O12         Cd13   2.008   1_655  S
Cd13         O15   2.092       .  S
O14          C21   1.279       .  A
C16          O20   1.272   1_554  A
C16         C958   1.472       .  S
C17        C1014   1.472       .  S
C19         C972   1.484       .  S
C21        C1028   1.498       .  S
C22          O23   1.278       .  A
C22        C1000   1.489       .  S
O24          C40   1.273       .  A
O24         Zn30   2.010       .  S
C25          O41   1.272       .  A
C25          O38   1.275       .  A
C25         C891   1.475       .  S
O26          C39   1.278       .  A
O26         Cd33   2.111       .  S
O27          C45   1.276       .  A
O27         Cd36   2.069   1_655  S
O28          C42   1.277       .  A
O28         Cd32   2.082       .  S
O29          C40   1.276       .  A
O29         Cd32   2.095       .  S
Zn30         O41   1.992       .  S
Zn30         O43   1.992   1_455  S
Zn30         O35   1.922       .  S
O31          C42   1.275       .  A
O31         Cd36   2.073       .  S
Cd32         O34   2.070   1_455  S
Cd32         O35   2.010       .  S
Cd33         O37   2.090       .  S
Cd33         O46   2.095       .  S
Cd33         O35   2.022   1_655  S
O34          C44   1.276       .  A
O35         Cd36   2.011       .  S
Cd36         O38   2.093       .  S
O37          C44   1.279       .  A
C39          O43   1.270       .  A
C39        C1031   1.476       .  S
C40         C919   1.476       .  S
C42         C933   1.497       .  S
C44         C902   1.491       .  S
C45          O46   1.279       .  A
C45         C944   1.493       .  S
O47          C63   1.272       .  A
O47         Zn53   1.989       .  S
C48          O64   1.269       .  A
C48          O61   1.275       .  A
C48         C860   1.471       .  S
O49          C62   1.276       .  A
O49         Cd56   2.094       .  S
O50          C68   1.276       .  A
O50         Cd59   2.074       .  S
O51          C65   1.276       .  A
O51         Cd55   2.070       .  S
O52          C63   1.277       .  A
O52         Cd55   2.101       .  S
Zn53         O64   1.987       .  S
Zn53         O66   1.994       .  S
Zn53         O58   1.910       .  S
O54          C65   1.277       .  A
O54         Cd59   2.080       .  S
Cd55         O57   2.080       .  S
Cd55         O58   2.013       .  S
Cd56         O60   2.078       .  S
Cd56         O69   2.065       .  S
Cd56         O58   2.010       .  S
O57          C67   1.276       .  A
O58         Cd59   2.017       .  S
Cd59         O61   2.099       .  S
O60          C67   1.277       .  A
C62          O66   1.272       .  A
C62         C818   1.479       .  S
C63         C877   1.480       .  S
C65         C832   1.493       .  S
C67         C947   1.494       .  S
C68          O69   1.276       .  A
C68         C846   1.481       .  S
O70          C86   1.271       .  A
O70         Zn76   1.988       .  S
C71          O87   1.272   1_565  A
C71          O84   1.276       .  A
C71         C790   1.472       .  S
O72          C85   1.275       .  A
O72         Cd79   2.089       .  S
O73          C91   1.277       .  A
O73         Cd82   2.087       .  S
O74          C88   1.276       .  A
O74         Cd78   2.078   1_565  S
O75          C86   1.275       .  A
O75         Cd78   2.101       .  S
Zn76         O87   1.995       .  S
Zn76         O89   2.002       .  S
Zn76         O81   1.913       .  S
O77          C88   1.277       .  A
O77         Cd82   2.072       .  S
Cd78         O80   2.063       .  S
Cd78         O81   2.013       .  S
Cd79         O83   2.077       .  S
Cd79         O92   2.079   1_545  S
Cd79         O81   2.010       .  S
O80          C90   1.276       .  A
O81         Cd82   2.008   1_545  S
Cd82         O84   2.091       .  S
O83          C90   1.275       .  A
C85          O89   1.272       .  A
C85         C779   1.469       .  S
C86         C874   1.482       .  S
C88         C762   1.494       .  S
C90        C1017   1.485       .  S
C91          O92   1.278       .  A
C91         C804   1.496       .  S
O93         C109   1.269       .  A
O93         Zn99   1.978   1_565  S
C94         O110   1.270       .  A
C94         O107   1.276       .  A
C94         C888   1.477       .  S
O95         C108   1.276       .  A
O95        Cd102   2.093       .  S
O96         C114   1.277       .  A
O96        Cd105   2.085       .  S
O97         C111   1.278       .  A
O97        Cd101   2.077       .  S
O98         C109   1.277       .  A
O98        Cd101   2.105       .  S
Zn99        O110   1.979       .  S
Zn99        O112   1.984       .  S
Zn99        O104   1.906       .  S
O100        C111   1.276       .  A
O100       Cd105   2.076   1_565  S
Cd101       O103   2.093       .  S
Cd101       O104   2.013   1_565  S
Cd102       O106   2.066   1_545  S
Cd102       O115   2.069       .  S
Cd102       O104   2.001       .  S
O103        C113   1.278       .  A
O104       Cd105   2.017       .  S
Cd105       O107   2.102       .  S
O106        C113   1.276       .  A
C108        O112   1.270       .  A
C108        C720   1.475       .  S
C109       C1003   1.473       .  S
C111        C734   1.493       .  S
C113        C748   1.491       .  S
C114        O115   1.276       .  A
C114        C709   1.485       .  S
O116        C132   1.272       .  A
O116       Zn122   1.993       .  S
C117        O133   1.271       .  A
C117        O130   1.277       .  A
C117        C678   1.477       .  S
O118        C131   1.274       .  A
O118       Cd125   2.087       .  S
O119        C137   1.278       .  A
O119       Cd128   2.091   1_655  S
O120        C134   1.277       .  A
O120       Cd124   2.074       .  S
O121        C132   1.277       .  A
O121       Cd124   2.100       .  S
Zn122       O133   1.983       .  S
Zn122       O135   2.009       .  S
Zn122       O127   1.908       .  S
O123        C134   1.277       .  A
O123       Cd128   2.089       .  S
Cd124       O126   2.085   1_455  S
Cd124       O127   2.010       .  S
Cd125       O129   2.060       .  S
Cd125       O138   2.057       .  S
Cd125       O127   2.000   1_655  S
O126        C136   1.277       .  A
O127       Cd128   2.021       .  S
Cd128       O130   2.105       .  S
O129        C136   1.275       .  A
C131        O135   1.273   1_655  A
C131        C695   1.478       .  S
C132        C650   1.475       .  S
C134        C930   1.496       .  S
C136        C835   1.493       .  S
C137        O138   1.275       .  A
C137        C667   1.486       .  S
O139        C155   1.271       .  A
O139       Zn145   1.975       .  S
C140        O156   1.272       .  A
C140        O153   1.275       .  A
C140        C625   1.479       .  S
O141        C154   1.276       .  A
O141       Cd148   2.101       .  S
O142        C160   1.277       .  A
O142       Cd151   2.073       .  S
O143        C157   1.281       .  A
O143       Cd147   2.106       .  S
O144        C155   1.279       .  A
O144       Cd147   2.123       .  S
Zn145       O156   1.999       .  S
Zn145       O158   1.986       .  S
Zn145       O150   1.907       .  S
O146        C157   1.277       .  A
O146       Cd151   2.068       .  S
Cd147       O149   2.093       .  S
Cd147       O150   2.028       .  S
Cd148       O152   2.071       .  S
Cd148       O161   2.081       .  S
Cd148       O150   2.014       .  S
O149        C159   1.280       .  A
O150       Cd151   2.007       .  S
Cd151       O153   2.096       .  S
O152        C159   1.276       .  A
C154        O158   1.270       .  A
C154        C594   1.479       .  S
C155        C636   1.486       .  S
C157        C608   1.498       .  S
C159        C863   1.496       .  S
C160        O161   1.277       .  A
C160        C776   1.495       .  S
O162        C178   1.270       .  A
O162       Zn168   1.989       .  S
C163        O179   1.271       .  A
C163        O176   1.277       .  A
C163        C807   1.476       .  S
O164        C177   1.276       .  A
O164       Cd171   2.095       .  S
O165        C183   1.278       .  A
O165       Cd174   2.083   1_554  S
O166        C180   1.274       .  A
O166       Cd170   2.064       .  S
O167        C178   1.273       .  A
O167       Cd170   2.079       .  S
Zn168       O179   1.999       .  S
Zn168       O181   1.979       .  S
Zn168       O173   1.915       .  S
O169        C180   1.278       .  A
O169       Cd174   2.078       .  S
Cd170       O172   2.068   1_556  S
Cd170       O173   2.004       .  S
Cd171       O175   2.082       .  S
Cd171       O184   2.075       .  S
Cd171       O173   2.014   1_554  S
O172        C182   1.276       .  A
O173       Cd174   2.008       .  S
Cd174       O176   2.103       .  S
O175        C182   1.276       .  A
C177        O181   1.270   1_554  A
C177        C961   1.474       .  S
C178        C580   1.463       .  S
C180        C538   1.491       .  S
C182        C566   1.494       .  S
C183        O184   1.277       .  A
C183        C552   1.495       .  S
O185        C201   1.269       .  A
O185       Zn191   1.980       .  S
C186        O202   1.272       .  A
C186        O199   1.274       .  A
C186        C510   1.470       .  S
O187        C200   1.276       .  A
O187       Cd194   2.096       .  S
O188        C206   1.275       .  A
O188       Cd197   2.064   1_554  S
O189        C203   1.278       .  A
O189       Cd193   2.087       .  S
O190        C201   1.277       .  A
O190       Cd193   2.114       .  S
Zn191       O202   1.993       .  S
Zn191       O204   1.988       .  S
Zn191       O196   1.908       .  S
O192        C203   1.275       .  A
O192       Cd197   2.059       .  S
Cd193       O195   2.087   1_556  S
Cd193       O196   2.023       .  S
Cd194       O198   2.057       .  S
Cd194       O207   2.088       .  S
Cd194       O196   2.014   1_554  S
O195        C205   1.278       .  A
O196       Cd197   2.001       .  S
Cd197       O199   2.080       .  S
O198        C205   1.275       .  A
C200        O204   1.271   1_554  A
C200        C527   1.479       .  S
C201        C622   1.477       .  S
C203        C975   1.486       .  S
C205        C723   1.480       .  S
C206        O207   1.276       .  A
C206        C916   1.493       .  S
O208        C224   1.270       .  A
O208       Zn214   1.986       .  S
C209        O225   1.271       .  A
C209        O222   1.277       .  A
C209        C905   1.475       .  S
O210        C223   1.275       .  A
O210       Cd217   2.093       .  S
O211        C229   1.277       .  A
O211       Cd220   2.080       .  S
O212        C226   1.277       .  A
O212       Cd216   2.074       .  S
O213        C224   1.275       .  A
O213       Cd216   2.089       .  S
Zn214       O225   1.996       .  S
Zn214       O227   1.995       .  S
Zn214       O219   1.917       .  S
O215        C226   1.277       .  A
O215       Cd220   2.082       .  S
Cd216       O218   2.076       .  S
Cd216       O219   2.009       .  S
Cd217       O221   2.080       .  S
Cd217       O230   2.070       .  S
Cd217       O219   2.008       .  S
O218        C228   1.275       .  A
O219       Cd220   2.011       .  S
Cd220       O222   2.101       .  S
O221        C228   1.278       .  A
C223        O227   1.271       .  A
C223        C664   1.473       .  S
C224        C849   1.471       .  S
C226        C482   1.495       .  S
C228        C496   1.496       .  S
C229        O230   1.276       .  A
C229        C569   1.493       .  S
O231        C247   1.272       .  A
O231       Zn237   2.002       .  S
C232        O248   1.273   1_545  A
C232        O245   1.277       .  A
C232        C706   1.477       .  S
O233        C246   1.275       .  A
O233       Cd240   2.090       .  S
O234        C252   1.275       .  A
O234       Cd243   2.065       .  S
O235        C249   1.277       .  A
O235       Cd239   2.084   1_545  S
O236        C247   1.276       .  A
O236       Cd239   2.094       .  S
Zn237       O248   2.003       .  S
Zn237       O250   1.991       .  S
Zn237       O242   1.916       .  S
O238        C249   1.277       .  A
O238       Cd243   2.078       .  S
Cd239       O241   2.075       .  S
Cd239       O242   2.007       .  S
Cd240       O244   2.070       .  S
Cd240       O253   2.076   1_565  S
Cd240       O242   2.011       .  S
O241        C251   1.276       .  A
O242       Cd243   2.004   1_565  S
Cd243       O245   2.092       .  S
O244        C251   1.276       .  A
C246        O250   1.271       .  A
C246        C454   1.472       .  S
C247        C468   1.471       .  S
C249        C611   1.499       .  S
C251        C793   1.484       .  S
C252        O253   1.275       .  A
C252        C821   1.482       .  S
O254        C270   1.268       .  A
O254       Zn260   1.977   1_655  S
C255        O271   1.270       .  A
C255        O268   1.276       .  A
C255        C426   1.474       .  S
O256        C269   1.275       .  A
O256       Cd263   2.084       .  S
O257        C275   1.278       .  A
O257       Cd266   2.085       .  S
O258        C272   1.276       .  A
O258       Cd262   2.073       .  S
O259        C270   1.275       .  A
O259       Cd262   2.103       .  S
Zn260       O271   1.978       .  S
Zn260       O273   1.988       .  S
Zn260       O265   1.911   1_455  S
O261        C272   1.278       .  A
O261       Cd266   2.081   1_655  S
Cd262       O264   2.069       .  S
Cd262       O265   2.013       .  S
Cd263       O267   2.074   1_455  S
Cd263       O276   2.075       .  S
Cd263       O265   2.006   1_455  S
O264        C274   1.276       .  A
O265       Cd266   2.015   1_655  S
Cd266       O268   2.101       .  S
O267        C274   1.276       .  A
C269        O273   1.270       .  A
C269        C443   1.467       .  S
C270        C692   1.474       .  S
C272        C765   1.494       .  S
C274        C583   1.491       .  S
C275        O276   1.275       .  A
C275        C986   1.496       .  S
O277        C293   1.272       .  A
O277       Zn283   2.004       .  S
C278        O294   1.270       .  A
C278        O291   1.278       .  A
C278        C412   1.476       .  S
O279        C292   1.275       .  A
O279       Cd286   2.091       .  S
O280        C298   1.278       .  A
O280       Cd289   2.088       .  S
O281        C295   1.276       .  A
O281       Cd285   2.062       .  S
O282        C293   1.276       .  A
O282       Cd285   2.096       .  S
Zn283       O294   1.987       .  S
Zn283       O296   1.989       .  S
Zn283       O288   1.915       .  S
O284        C295   1.278       .  A
O284       Cd289   2.089       .  S
Cd285       O287   2.083       .  S
Cd285       O288   2.004       .  S
Cd286       O290   2.071       .  S
Cd286       O299   2.072       .  S
Cd286       O288   2.006       .  S
O287        C297   1.276       .  A
O288       Cd289   2.018       .  S
Cd289       O291   2.104       .  S
O290        C297   1.277       .  A
C292        O296   1.271       .  A
C292        C457   1.471       .  S
C293        C751   1.476       .  S
C295        C398   1.493       .  S
C297        C555   1.494       .  S
C298        O299   1.275       .  A
C298        C499   1.496       .  S
O300        C316   1.273       .  A
O300       Zn306   1.997       .  S
C301        O317   1.272       .  A
C301        O314   1.274       .  A
C301        C681   1.477       .  S
O302        C315   1.277       .  A
O302       Cd309   2.100       .  S
O303        C321   1.275       .  A
O303       Cd312   2.061       .  S
O304        C318   1.278       .  A
O304       Cd308   2.085       .  S
O305        C316   1.276       .  A
O305       Cd308   2.092       .  S
Zn306       O317   1.997       .  S
Zn306       O319   2.000       .  S
Zn306       O311   1.916       .  S
O307        C318   1.273       .  A
O307       Cd312   2.062       .  S
Cd308       O310   2.069       .  S
Cd308       O311   2.013       .  S
Cd309       O313   2.087       .  S
Cd309       O322   2.095       .  S
Cd309       O311   2.016       .  S
O310        C320   1.275       .  A
O311       Cd312   2.007       .  S
Cd312       O314   2.088       .  S
O313        C320   1.279       .  A
C315        O319   1.272       .  A
C315        C384   1.473       .  S
C316        C429   1.474       .  S
C318        C737   1.494       .  S
C320        C471   1.495       .  S
C321        O322   1.278       .  A
C321        C415   1.486       .  S
O323        C339   1.273       .  A
O323       Zn329   1.996       .  S
C324        O340   1.272       .  A
C324        O337   1.276       .  A
C324        C373   1.476       .  S
O325        C338   1.272       .  A
O325       Cd332   2.082       .  S
O326        C344   1.277       .  A
O326       Cd335   2.086       .  S
O327        C341   1.277       .  A
O327       Cd331   2.081       .  S
O328        C339   1.277       .  A
O328       Cd331   2.110       .  S
Zn329       O340   1.995       .  S
Zn329       O342   1.985       .  S
Zn329       O334   1.909       .  S
O330        C341   1.278       .  A
O330       Cd335   2.081       .  S
Cd331       O333   2.089       .  S
Cd331       O334   2.017       .  S
Cd332       O336   2.060       .  S
Cd332       O345   2.054       .  S
Cd332       O334   2.007       .  S
O333        C343   1.278       .  A
O334       Cd335   2.016       .  S
Cd335       O337   2.096       .  S
O336        C343   1.274       .  A
C338        O342   1.269       .  A
C338        C513   1.469       .  S
C339        C639   1.485       .  S
C341        C387   1.497       .  S
C343        C653   1.487       .  S
C344        O345   1.274       .  A
C344        C440   1.486       .  S
O346        C362   1.271       .  A
O346       Zn352   1.985       .  S
C347        O363   1.271   1_554  A
C347        O360   1.277       .  A
C347        C524   1.479       .  S
O348        C361   1.276       .  A
O348       Cd355   2.101       .  S
O349        C367   1.277       .  A
O349       Cd358   2.078       .  S
O350        C364   1.278       .  A
O350       Cd354   2.081   1_554  S
O351        C362   1.276       .  A
O351       Cd354   2.101       .  S
Zn352       O363   1.979       .  S
Zn352       O365   1.980       .  S
Zn352       O357   1.896       .  S
O353        C364   1.276       .  A
O353       Cd358   2.075       .  S
Cd354       O356   2.070       .  S
Cd354       O357   2.008       .  S
Cd355       O359   2.076       .  S
Cd355       O368   2.073   1_556  S
Cd355       O357   2.008       .  S
O356        C366   1.276       .  A
O357       Cd358   2.012   1_556  S
Cd358       O360   2.103       .  S
O359        C366   1.276       .  A
C361        O365   1.270       .  A
C361        C370   1.476       .  S
C362        C597   1.482       .  S
C364        C485   1.495       .  S
C366        C541   1.490       .  S
C367        O368   1.276       .  A
C367        C401   1.494       .  S
C369        C370   1.402       .  A
C369        C374   1.394       .  A
C369        H376   1.086       .  S
C370        C371   1.411       .  A
C371        C372   1.408       .  A
C371        N378   1.428       .  S
C372        C373   1.405       .  A
C372        H377   1.085       .  S
C373        C374   1.410       .  A
C374        N375   1.430       .  S
N375        O379   1.262       .  A
N375        O380   1.262       .  A
N378        O382   1.262       .  A
N378        O381   1.262       .  A
C383        C384   1.399       .  A
C383        C388   1.402       .  A
C383        H390   1.086       .  S
C384        C385   1.406       .  A
C385        C386   1.404       .  A
C385        N392   1.429       .  S
C386        C387   1.411       .  A
C386        H391   1.085       .  S
C387        C388   1.419       .  A
C388        N389   1.429       .  S
N389        O393   1.262       .  A
N389        O394   1.262       .  A
N392        O396   1.262       .  A
N392        O395   1.262       .  A
C397        C398   1.407       .  A
C397        C402   1.398       .  A
C397        H404   1.083       .  S
C398        C399   1.414       .  A
C399        C400   1.404       .  A
C399        N406   1.429       .  S
C400        C401   1.409       .  A
C400        H405   1.083       .  S
C401        C402   1.416       .  A
C402        N403   1.429       .  S
N403        O407   1.262       .  A
N403        O408   1.262       .  A
N406        O410   1.262       .  A
N406        O409   1.262       .  A
C411        C412   1.403       .  A
C411        C416   1.408       .  A
C411        H418   1.085       .  S
C412        C413   1.409       .  A
C413        C414   1.396       .  A
C413        N420   1.430       .  S
C414        C415   1.405       .  A
C414        H419   1.085       .  S
C415        C416   1.414       .  A
C416        N417   1.430       .  S
N417        O421   1.262       .  A
N417        O422   1.262       .  A
N420        O424   1.262       .  A
N420        O423   1.262       .  A
C425        C426   1.404       .  A
C425        C430   1.408       .  A
C425        H432   1.085       .  S
C426        C427   1.410       .  A
C427        C428   1.393       .  A
C427        N434   1.429       .  S
C428        C429   1.399       .  A
C428        H433   1.086       .  S
C429        C430   1.411       .  A
C430        N431   1.428       .  S
N431        O435   1.261       .  A
N431        O436   1.262       .  A
N434        O438   1.262       .  A
N434        O437   1.262       .  A
C439        C440   1.407       .  A
C439        C444   1.395       .  A
C439        H446   1.084       .  S
C440        C441   1.416       .  A
C441        C442   1.405       .  A
C441        N448   1.431       .  S
C442        C443   1.401       .  A
C442        H447   1.084       .  S
C443        C444   1.405       .  A
C444        N445   1.430       .  S
N445        O449   1.262       .  A
N445        O450   1.262       .  A
N448        O452   1.262       .  A
N448        O451   1.262       .  A
C453        C454   1.401       .  A
C453        C458   1.395       .  A
C453        H460   1.085       .  S
C454        C455   1.411       .  A
C455        C456   1.407       .  A
C455        N462   1.430       .  S
C456        C457   1.404       .  A
C456        H461   1.084       .  S
C457        C458   1.408       .  A
C458        N459   1.430       .  S
N459        O463   1.262       .  A
N459        O464   1.262       .  A
N462        O466   1.262       .  A
N462        O465   1.262       .  A
C467        C468   1.398       .  A
C467        C472   1.402       .  A
C467        H474   1.084       .  S
C468        C469   1.406       .  A
C469        C470   1.403       .  A
C469        N476   1.429       .  S
C470        C471   1.409       .  A
C470        H475   1.083       .  S
C471        C472   1.420       .  A
C472        N473   1.430       .  S
N473        O477   1.262       .  A
N473        O478   1.262       .  A
N476        O480   1.262       .  A
N476        O479   1.262       .  A
C481        C482   1.407       .  A
C481        C486   1.401       .  A
C481        H488   1.084       .  S
C482        C483   1.415       .  A
C483        C484   1.403       .  A
C483        N490   1.429       .  S
C484        C485   1.407       .  A
C484        H489   1.084       .  S
C485        C486   1.417       .  A
C486        N487   1.430       .  S
N487        O491   1.262       .  A
N487        O492   1.262       .  A
N490        O494   1.262       .  A
N490        O493   1.262       .  A
C495        C496   1.406       .  A
C495        C500   1.402       .  A
C495        H502   1.084       .  S
C496        C497   1.417       .  A
C497        C498   1.404       .  A
C497        N504   1.429       .  S
C498        C499   1.407       .  A
C498        H503   1.084       .  S
C499        C500   1.417       .  A
C500        N501   1.430       .  S
N501        O505   1.262       .  A
N501        O506   1.262       .  A
N504        O508   1.262       .  A
N504        O507   1.262       .  A
C509        C510   1.404       .  A
C509        C514   1.405       .  A
C509        H516   1.094       .  S
C510        C511   1.408       .  A
C511        C512   1.389       .  A
C511        N518   1.430       .  S
C512        C513   1.397       .  A
C512        H517   1.103       .  S
C513        C514   1.410       .  A
C514        N515   1.428       .  S
N515        O519   1.262       .  A
N515        O520   1.262       .  A
N518        O522   1.262       .  A
N518        O521   1.262       .  A
C523        C524   1.402       .  A
C523        C528   1.393       .  A
C523        H530   1.086   1_554  S
C524        C525   1.412       .  A
C525        C526   1.409       .  A
C525        N532   1.428       .  S
C526        C527   1.405       .  A
C526        H531   1.086       .  S
C527        C528   1.411       .  A
C528        N529   1.431   1_554  S
N529        O533   1.262       .  A
N529        O534   1.262       .  A
N532        O536   1.262       .  A
N532        O535   1.262       .  A
C537        C538   1.406       .  A
C537        C542   1.401       .  A
C537        H544   1.084       .  S
C538        C539   1.416       .  A
C539        C540   1.399       .  A
C539        N546   1.430       .  S
C540        C541   1.406       .  A
C540        H545   1.084       .  S
C541        C542   1.414       .  A
C542        N543   1.429       .  S
N543        O547   1.262       .  A
N543        O548   1.262       .  A
N546        O550   1.262       .  A
N546        O549   1.262   1_556  A
C551        C552   1.408       .  A
C551        C556   1.403       .  A
C551        H558   1.085       .  S
C552        C553   1.416       .  A
C553        C554   1.401       .  A
C553        N560   1.429       .  S
C554        C555   1.406       .  A
C554        H559   1.085       .  S
C555        C556   1.416       .  A
C556        N557   1.430       .  S
N557        O561   1.262       .  A
N557        O562   1.262       .  A
N560        O564   1.262       .  A
N560        O563   1.262       .  A
C565        C566   1.407       .  A
C565        C570   1.400       .  A
C565        H572   1.084       .  S
C566        C567   1.416       .  A
C567        C568   1.403       .  A
C567        N574   1.431       .  S
C568        C569   1.408       .  A
C568        H573   1.084       .  S
C569        C570   1.414       .  A
C570        N571   1.429       .  S
N571        O575   1.262       .  A
N571        O576   1.262       .  A
N574        O578   1.262       .  A
N574        O577   1.262       .  A
C579        C580   1.397       .  A
C579        C584   1.400       .  A
C579        H586   1.085       .  S
C580        C581   1.403       .  A
C581        C582   1.399       .  A
C581        N588   1.429       .  S
C582        C583   1.410       .  A
C582        H587   1.084       .  S
C583        C584   1.419       .  A
C584        N585   1.429       .  S
N585        O589   1.262       .  A
N585        O590   1.262       .  A
N588        O592   1.262       .  A
N588        O591   1.262       .  A
C593        C594   1.401       .  A
C593        C598   1.395       .  A
C593        H600   1.086       .  S
C594        C595   1.411       .  A
C595        C596   1.409       .  A
C595        N602   1.428       .  S
C596        C597   1.406       .  A
C596        H601   1.085       .  S
C597        C598   1.412       .  A
C598        N599   1.433       .  S
N599        O603   1.262       .  A
N599        O604   1.262       .  A
N602        O606   1.262       .  A
N602        O605   1.262       .  A
C607        C608   1.408       .  A
C607        C612   1.402       .  A
C607        H614   1.085       .  S
C608        C609   1.414       .  A
C609        C610   1.407       .  A
C609        N616   1.430       .  S
C610        C611   1.410       .  A
C610        H615   1.084       .  S
C611        C612   1.416       .  A
C612        N613   1.430       .  S
N613        O617   1.262       .  A
N613        O618   1.262       .  A
N616        O620   1.262       .  A
N616        O619   1.262       .  A
C621        C622   1.402       .  A
C621        C626   1.395       .  A
C621        H628   1.083       .  S
C622        C623   1.410       .  A
C623        C624   1.410       .  A
C623        N630   1.428       .  S
C624        C625   1.407       .  A
C624        H629   1.083       .  S
C625        C626   1.409       .  A
C626        N627   1.430       .  S
N627        O631   1.262       .  A
N627        O632   1.262       .  A
N630        O634   1.262       .  A
N630        O633   1.262       .  A
C635        C636   1.402       .  A
C635        C640   1.392       .  A
C635        H642   1.084       .  S
C636        C637   1.414       .  A
C637        C638   1.414       .  A
C637        N644   1.428       .  S
C638        C639   1.407       .  A
C638        H643   1.083       .  S
C639        C640   1.410       .  A
C640        N641   1.430       .  S
N641        O645   1.262       .  A
N641        O646   1.262       .  A
N644        O648   1.262       .  A
N644        O647   1.262       .  A
C649        C650   1.400       .  A
C649        C654   1.397       .  A
C649        H656   1.086       .  S
C650        C651   1.408       .  A
C651        C652   1.406       .  A
C651        N658   1.428       .  S
C652        C653   1.408       .  A
C652        H657   1.085       .  S
C653        C654   1.417       .  A
C654        N655   1.431       .  S
N655        O659   1.262       .  A
N655        O660   1.262       .  A
N658        O662   1.262       .  A
N658        O661   1.262       .  A
C663        C664   1.403       .  A
C663        C668   1.406       .  A
C663        H670   1.085       .  S
C664        C665   1.407       .  A
C665        C666   1.396       .  A
C665        N672   1.430       .  S
C666        C667   1.406       .  A
C666        H671   1.085       .  S
C667        C668   1.414       .  A
C668        N669   1.428       .  S
N669        O673   1.262       .  A
N669        O674   1.262       .  A
N672        O676   1.262       .  A
N672        O675   1.262       .  A
C677        C678   1.405       .  A
C677        C682   1.409       .  A
C677        H684   1.085       .  S
C678        C679   1.411       .  A
C679        C680   1.393       .  A
C679        N686   1.431       .  S
C680        C681   1.400       .  A
C680        H685   1.086       .  S
C681        C682   1.412       .  A
C682        N683   1.428       .  S
N683        O687   1.262       .  A
N683        O688   1.262       .  A
N686        O690   1.262       .  A
N686        O689   1.262       .  A
C691        C692   1.400       .  A
C691        C696   1.393       .  A
C691        H698   1.089       .  S
C692        C693   1.410       .  A
C693        C694   1.409       .  A
C693        N700   1.429       .  S
C694        C695   1.407       .  A
C694        H699   1.088       .  S
C695        C696   1.408       .  A
C696        N697   1.430       .  S
N697        O701   1.262       .  A
N697        O702   1.262   1_655  A
N700        O704   1.262       .  A
N700        O703   1.262       .  A
C705        C706   1.403       .  A
C705        C710   1.406       .  A
C705        H712   1.085       .  S
C706        C707   1.410       .  A
C707        C708   1.398       .  A
C707        N714   1.431   1_545  S
C708        C709   1.405       .  A
C708        H713   1.085       .  S
C709        C710   1.413       .  A
C710        N711   1.428       .  S
N711        O715   1.262       .  A
N711        O716   1.262       .  A
N714        O718   1.262   1_565  A
N714        O717   1.262       .  A
C719        C720   1.404       .  A
C719        C724   1.409       .  A
C719        H726   1.084       .  S
C720        C721   1.409       .  A
C721        C722   1.394       .  A
C721        N728   1.430       .  S
C722        C723   1.404       .  A
C722        H727   1.085       .  S
C723        C724   1.414       .  A
C724        N725   1.434       .  S
N725        O729   1.263       .  A
N725        O730   1.262       .  A
N728        O732   1.262       .  A
N728        O731   1.262       .  A
C733        C734   1.405       .  A
C733        C738   1.399       .  A
C733        H740   1.085       .  S
C734        C735   1.417       .  A
C735        C736   1.403       .  A
C735        N742   1.429       .  S
C736        C737   1.407       .  A
C736        H741   1.085       .  S
C737        C738   1.417       .  A
C738        N739   1.429       .  S
N739        O743   1.262       .  A
N739        O744   1.262       .  A
N742        O746   1.262       .  A
N742        O745   1.262       .  A
C747        C748   1.408       .  A
C747        C752   1.399       .  A
C747        H754   1.083       .  S
C748        C749   1.415       .  A
C749        C750   1.407       .  A
C749        N756   1.429       .  S
C750        C751   1.403       .  A
C750        H755   1.084       .  S
C751        C752   1.407       .  A
C752        N753   1.430       .  S
N753        O757   1.262       .  A
N753        O758   1.262       .  A
N756        O760   1.262       .  A
N756        O759   1.262       .  A
C761        C762   1.407       .  A
C761        C766   1.400       .  A
C761        H768   1.084       .  S
C762        C763   1.415       .  A
C763        C764   1.403       .  A
C763        N770   1.430       .  S
C764        C765   1.408       .  A
C764        H769   1.084       .  S
C765        C766   1.416       .  A
C766        N767   1.429       .  S
N767        O771   1.262       .  A
N767        O772   1.262       .  A
N770        O774   1.262       .  A
N770        O773   1.262       .  A
C775        C776   1.411       .  A
C775        C780   1.401       .  A
C775        H782   1.084       .  S
C776        C777   1.419       .  A
C777        C778   1.403       .  A
C777        N784   1.430       .  S
C778        C779   1.399       .  A
C778        H783   1.085       .  S
C779        C780   1.403       .  A
C780        N781   1.429       .  S
N781        O785   1.262       .  A
N781        O786   1.262       .  A
N784        O788   1.262       .  A
N784        O787   1.262       .  A
C789        C790   1.401       .  A
C789        C794   1.405       .  A
C789        H796   1.085       .  S
C790        C791   1.408       .  A
C791        C792   1.397       .  A
C791        N798   1.430       .  S
C792        C793   1.405       .  A
C792        H797   1.085       .  S
C793        C794   1.415       .  A
C794        N795   1.430       .  S
N795        O799   1.262       .  A
N795        O800   1.262       .  A
N798        O802   1.262   1_565  A
N798        O801   1.262       .  A
C803        C804   1.409       .  A
C803        C808   1.400       .  A
C803        H810   1.084       .  S
C804        C805   1.419       .  A
C805        C806   1.407       .  A
C805        N812   1.430       .  S
C806        C807   1.401       .  A
C806        H811   1.085       .  S
C807        C808   1.407       .  A
C808        N809   1.430       .  S
N809        O813   1.262       .  A
N809        O814   1.262       .  A
N812        O816   1.262       .  A
N812        O815   1.262       .  A
C817        C818   1.402       .  A
C817        C822   1.395       .  A
C817        H824   1.085       .  S
C818        C819   1.410       .  A
C819        C820   1.407       .  A
C819        N826   1.429       .  S
C820        C821   1.407       .  A
C820        H825   1.084       .  S
C821        C822   1.414       .  A
C822        N823   1.432       .  S
N823        O827   1.262       .  A
N823        O828   1.262       .  A
N826        O830   1.262       .  A
N826        O829   1.262       .  A
C831        C832   1.408       .  A
C831        C836   1.402       .  A
C831        H838   1.084       .  S
C832        C833   1.415       .  A
C833        C834   1.400       .  A
C833        N840   1.429       .  S
C834        C835   1.408       .  A
C834        H839   1.084       .  S
C835        C836   1.414       .  A
C836        N837   1.429       .  S
N837        O841   1.262       .  A
N837        O842   1.262       .  A
N840        O844   1.262       .  A
N840        O843   1.262       .  A
C845        C846   1.404       .  A
C845        C850   1.396       .  A
C845        H852   1.085       .  S
C846        C847   1.414       .  A
C847        C848   1.404       .  A
C847        N854   1.429       .  S
C848        C849   1.402       .  A
C848        H853   1.085       .  S
C849        C850   1.408       .  A
C850        N851   1.430       .  S
N851        O855   1.262       .  A
N851        O856   1.262       .  A
N854        O858   1.262       .  A
N854        O857   1.262       .  A
C859        C860   1.398       .  A
C859        C864   1.399       .  A
C859        H866   1.086       .  S
C860        C861   1.407       .  A
C861        C862   1.406       .  A
C861        N868   1.430       .  S
C862        C863   1.410       .  A
C862        H867   1.084       .  S
C863        C864   1.420       .  A
C864        N865   1.429       .  S
N865        O869   1.262       .  A
N865        O870   1.262       .  A
N868        O872   1.262       .  A
N868        O871   1.262       .  A
C873        C874   1.402       .  A
C873        C878   1.393       .  A
C873        H880   1.085       .  S
C874        C875   1.413       .  A
C875        C876   1.410       .  A
C875        N882   1.428       .  S
C876        C877   1.406       .  A
C876        H881   1.084       .  S
C877        C878   1.411       .  A
C878        N879   1.431       .  S
N879        O883   1.262       .  A
N879        O884   1.262       .  A
N882        O886   1.262       .  A
N882        O885   1.262       .  A
C887        C888   1.406       .  A
C887        C892   1.409       .  A
C887        H894   1.085       .  S
C888        C889   1.411       .  A
C889        C890   1.393       .  A
C889        N896   1.431       .  S
C890        C891   1.400       .  A
C890        H895   1.086       .  S
C891        C892   1.410       .  A
C892        N893   1.428       .  S
N893        O897   1.262       .  A
N893        O898   1.262       .  A
N896        O900   1.262       .  A
N896        O899   1.262       .  A
C901        C902   1.409       .  A
C901        C906   1.405       .  A
C901        H908   1.084       .  S
C902        C903   1.418       .  A
C903        C904   1.400       .  A
C903        N910   1.430       .  S
C904        C905   1.400       .  A
C904        H909   1.084       .  S
C905        C906   1.407       .  A
C906        N907   1.428       .  S
N907        O911   1.262       .  A
N907        O912   1.262       .  A
N910        O914   1.262       .  A
N910        O913   1.262       .  A
C915        C916   1.408       .  A
C915        C920   1.397       .  A
C915        H922   1.084       .  S
C916        C917   1.417       .  A
C917        C918   1.408       .  A
C917        N924   1.429       .  S
C918        C919   1.403       .  A
C918        H923   1.084       .  S
C919        C920   1.406       .  A
C920        N921   1.430       .  S
N921        O925   1.262       .  A
N921        O926   1.262       .  A
N924        O928   1.262       .  A
N924        O927   1.262       .  A
C929        C930   1.407       .  A
C929        C934   1.401       .  A
C929        H936   1.085       .  S
C930        C931   1.415       .  A
C931        C932   1.404       .  A
C931        N938   1.429       .  S
C932        C933   1.408       .  A
C932        H937   1.085       .  S
C933        C934   1.417       .  A
C934        N935   1.429       .  S
N935        O939   1.262       .  A
N935        O940   1.262       .  A
N938        O942   1.262       .  A
N938        O941   1.262       .  A
C943        C944   1.406       .  A
C943        C948   1.400       .  A
C943        H950   1.085       .  S
C944        C945   1.413       .  A
C945        C946   1.405       .  A
C945        N952   1.429       .  S
C946        C947   1.409       .  A
C946        H951   1.085       .  S
C947        C948   1.416       .  A
C948        N949   1.430       .  S
N949        O953   1.262       .  A
N949        O954   1.262       .  A
N952        O956   1.262       .  A
N952        O955   1.262       .  A
C957        C958   1.400       .  A
C957        C962   1.392       .  A
C957        H964   1.087       .  S
C958        C959   1.410       .  A
C959        C960   1.407       .  A
C959        N966   1.428       .  S
C960        C961   1.405       .  A
C960        H965   1.086       .  S
C961        C962   1.410       .  A
C962        N963   1.431       .  S
N963        O967   1.262   1_554  A
N963        O968   1.262       .  A
N966        O970   1.262       .  A
N966        O969   1.262       .  A
C971        C972   1.407       .  A
C971        C976   1.402       .  A
C971        H978   1.084       .  S
C972        C973   1.413       .  A
C973        C974   1.399       .  A
C973        N980   1.431       .  S
C974        C975   1.407       .  A
C974        H979   1.084       .  S
C975        C976   1.411       .  A
C976        N977   1.429       .  S
N977        O981   1.262       .  A
N977        O982   1.262       .  A
N980        O984   1.262       .  A
N980        O983   1.262   1_556  A
C985        C986   1.409       .  A
C985        C990   1.405       .  A
C985        H992   1.084       .  S
C986        C987   1.419       .  A
C987        C988   1.402       .  A
C987        N994   1.429       .  S
C988        C989   1.399       .  A
C988        H993   1.086       .  S
C989        C990   1.409       .  A
C990        N991   1.435       .  S
N991        O995   1.262       .  A
N991        O996   1.262       .  A
N994        O998   1.262       .  A
N994        O997   1.262       .  A
C999       C1000   1.406       .  A
C999       C1004   1.396       .  A
C999       H1006   1.085       .  S
C1000      C1001   1.416       .  A
C1001      C1002   1.407       .  A
C1001      N1008   1.428       .  S
C1002      C1003   1.402       .  A
C1002      H1007   1.085       .  S
C1003      C1004   1.408       .  A
C1004      N1005   1.430       .  S
N1005      O1009   1.262       .  A
N1005      O1010   1.262   1_565  A
N1008      O1012   1.262       .  A
N1008      O1011   1.262       .  A
C1013      C1014   1.403       .  A
C1013      C1018   1.407       .  A
C1013      H1020   1.085       .  S
C1014      C1015   1.407       .  A
C1015      C1016   1.394       .  A
C1015      N1022   1.430       .  S
C1016      C1017   1.404       .  A
C1016      H1021   1.085       .  S
C1017      C1018   1.416       .  A
C1018      N1019   1.429       .  S
N1019      O1023   1.262       .  A
N1019      O1024   1.262       .  A
N1022      O1026   1.262       .  A
N1022      O1025   1.262   1_545  A
C1027      C1028   1.408       .  A
C1027      C1032   1.401       .  A
C1027      H1034   1.083       .  S
C1028      C1029   1.420       .  A
C1029      C1030   1.407       .  A
C1029      N1036   1.429       .  S
C1030      C1031   1.401       .  A
C1030      H1035   1.084       .  S
C1031      C1032   1.407       .  A
C1032      N1033   1.429       .  S
N1033      O1037   1.262       .  A
N1033      O1038   1.262   1_655  A
N1036      O1040   1.262       .  A
N1036      O1039   1.262       .  A
