geometry optimzed in LAMMPS
_audit_creation_date              2020-11-30 
_audit_creation_method            'lammps2cif' 
_symmetry_space_group_name_H-M    'P1' 
_symmetry_Int_Tables_number       1 
_symmetry_cell_setting            triclinic 
loop_ 
_symmetry_equiv_pos_as_xyz 
  x,y,z 
_cell_length_a                    36.49020949 
_cell_length_b                    36.206253871524105 
_cell_length_c                    34.07967017008639 
_cell_angle_alpha                 89.86380416680674 
_cell_angle_beta                  90.25358043125311 
_cell_angle_gamma                 120.27108523057562 
loop_ 
_atom_site_label 
_atom_site_type_symbol 
_atom_site_fract_x 
_atom_site_fract_y 
_atom_site_fract_z 
_atom_site_charge 
C1          C  0.50301652  0.00371745  0.78611315     0.45200
H2          H  0.50819285  0.00733207  0.81763328    -0.03800
C3          C  0.99762528  0.49657803  0.71096653     0.45300
H4          H  0.99532690  0.48972658  0.68006367    -0.03800
C5          C  0.45935367  0.46643890  0.77380096    -0.17500
C6          C  0.50595731  0.04347661  0.76620957    -0.17300
C7          C  0.03901365  0.49762314  0.76718045    -0.17600
C8          C  0.45705383  0.46144174  0.73319791    -0.17600
C9          C  0.00435384  0.04057061  0.72521696    -0.17200
C10         C  0.03599578  0.99402272  0.72757464    -0.17500
O11         O  0.24536450  0.14199837  0.05225726    -0.78700
C12         C  0.25106922  0.07862635  0.94081425     0.82300
O13         O  0.35733438  0.10272297  0.05481967    -0.79800
O14         O  0.39273820  0.17453788  0.92358622    -0.81300
O15         O  0.33522485  0.25550488  0.97802652    -0.79500
O16         O  0.29178862  0.21160929  0.05894319    -0.79800
Zn17       Zn  0.27900331  0.11986920  0.02222599     1.55700
O18         O  0.32675650  0.21817976  0.92312048    -0.81200
Cd19       Cd  0.34089090  0.22085903  0.02329053     1.59700
Cd20       Cd  0.37997594  0.15847577  0.02274828     1.59600
O21         O  0.39811495  0.25516291  0.05334242    -0.81100
O22         O  0.33268353  0.16585599  0.00250291    -1.91700
Cd23       Cd  0.33404713  0.16686004  0.94317915     1.59900
O24         O  0.42124268  0.20872076  0.05692485    -0.81100
O25         O  0.28291363  0.10837673  0.92251148    -0.79800
C26         C  0.31962354  0.07609526  0.06560668     0.82800
C27         C  0.25539762  0.17911535  0.06493080     0.82400
O28         O  0.24556432  0.08092769  0.97743727    -0.78700
C29         C  0.32791565  0.24968006  0.94131636     0.83200
O30         O  0.28818598  0.08056522  0.05682246    -0.78800
C31         C  0.42540059  0.24500172  0.06418515     0.83400
C32         C  0.42199928  0.17144646  0.94160952     0.83700
O33         O  0.41959079  0.16246390  0.97798243    -0.81200
C34         C  0.33567333  0.33506384  0.87527094     0.80000
N35         N  0.30363512  0.34022552  0.88933371    -0.78300
C36         C  0.27883097  0.31532292  0.91899713     0.82400
N37         N  0.28706700  0.28592669  0.93527567    -0.78300
C38         C  0.31805363  0.27946649  0.92069937     0.82500
N39         N  0.34288321  0.30462865  0.89099642    -0.80000
O40         O  0.16865492  0.42057470  0.97416000    -0.78700
C41         C  0.07806451  0.32375748  0.06076419     0.82300
O42         O  0.25517582  0.39632549  0.05056509    -0.79800
O43         O  0.14092945  0.24461452  0.04982272    -0.81300
O44         O  0.10708208  0.28286848  0.91994867    -0.81100
O45         O  0.17730307  0.39281185  0.91887376    -0.79800
Zn46       Zn  0.16064539  0.38077235  0.01822049     1.55700
O47         O  0.07838566  0.24659968  0.97538740    -0.81200
Cd48       Cd  0.16719254  0.33301555  0.93931029     1.59700
Cd49       Cd  0.22088386  0.34054221  0.01913054     1.59600
O50         O  0.21703611  0.32294613  0.92023000    -0.81100
O51         O  0.16706667  0.33430139  0.99854014    -1.91700
Cd52       Cd  0.11983402  0.28025321  0.01977799     1.59900
O53         O  0.25541589  0.33447594  0.97494702    -0.81100
O54         O  0.08176043  0.29106501  0.05574489    -0.79800
C55         C  0.24411607  0.42274023  0.06195338     0.82800
C56         C  0.17667419  0.42312799  0.93764122     0.82400
O57         O  0.10496982  0.36043070  0.04721390    -0.78700
C58         C  0.07638802  0.25223822  0.93876175     0.83200
O59         O  0.20826290  0.41846559  0.05355073    -0.78800
C60         C  0.24882704  0.32516321  0.93867190     0.83400
C61         C  0.17808784  0.25460797  0.06132514     0.83700
O62         O  0.21049063  0.29070856  0.05421005    -0.81200
C63         C  0.16293444  0.16417962  0.12288340     0.80000
N64         N  0.15705601  0.19526916  0.10710769    -0.78300
C65         C  0.18505499  0.22281400  0.08062991     0.82400
N66         N  0.21816546  0.21851601  0.06901534    -0.78300
C67         C  0.22319083  0.18635484  0.08309756     0.82500
N68         N  0.19554528  0.15912963  0.11013258    -0.80000
C69         C  0.16725822  0.50047599  0.87312743     0.80000
N70         N  0.19654956  0.03811258  0.89015377    -0.78300
C71         C  0.22103557  0.03856366  0.92056181     0.82400
N72         N  0.21454251  0.50118067  0.93507908    -0.78300
C73         C  0.18654424  0.46335770  0.91797142     0.82500
N74         N  0.16311289  0.46320333  0.88695409    -0.80000
C75         C  0.50230754  0.33806396  0.12216291     0.80000
N76         N  0.03968434  0.34517625  0.10603407    -0.78300
C77         C  0.03931018  0.31705845  0.07955204     0.82400
N78         N  0.50211945  0.28323427  0.06829719    -0.78300
C79         C  0.46489956  0.27715881  0.08245829     0.82500
N80         N  0.46505654  0.30442387  0.10950240    -0.80000
C81         C  0.49947379  0.16478365  0.87545235     0.80000
N82         N  0.03609315  0.19777038  0.88877661    -0.78300
C83         C  0.03630079  0.22212257  0.91896221     0.82400
N84         N  0.49920259  0.21316764  0.93597455    -0.78300
C85         C  0.46169339  0.18146041  0.92142243     0.82500
N86         N  0.46198183  0.15657592  0.89176290    -0.80000
C87         C  0.33374204  0.49842683  0.12351372     0.80000
N88         N  0.33898485  0.03634382  0.11116945    -0.78300
C89         C  0.31118781  0.03663315  0.08492085     0.82400
N90         N  0.27853943  0.49911708  0.07075284    -0.78300
C91         C  0.27466405  0.46147714  0.08218082     0.82500
N92         N  0.30271559  0.46111256  0.10805207    -0.80000
O93         O  0.41688529  0.16839952  0.52792142    -0.78700
C94         C  0.32096581  0.07797144  0.43997318     0.82300
O95         O  0.39299561  0.25586507  0.45239221    -0.79800
O96         O  0.24136285  0.13951464  0.45377906    -0.81300
O97         O  0.28195961  0.10602765  0.58323490    -0.81100
O98         O  0.39017384  0.17819769  0.58320917    -0.79800
Zn99       Zn  0.37734545  0.16032009  0.48396578     1.55700
O100        O  0.24521458  0.07712565  0.52800323    -0.81200
Cd101      Cd  0.33051776  0.16640754  0.56314260     1.59700
Cd102      Cd  0.33735174  0.22060056  0.48357149     1.59600
O103        O  0.31994491  0.21557002  0.58273229    -0.81100
O104        O  0.33125766  0.16642662  0.50389676    -1.91700
Cd105      Cd  0.27744381  0.11867196  0.48315572     1.59900
O106        O  0.33140657  0.25473383  0.52841183    -0.81100
O107        O  0.28830577  0.08105095  0.44610380    -0.79800
C108        C  0.41947822  0.24491964  0.44132716     0.82800
C109        C  0.42002460  0.17750410  0.56426413     0.82400
O110        O  0.35741719  0.10503806  0.45356700    -0.78700
C111        C  0.25139341  0.07511004  0.56454946     0.83200
O112        O  0.41513257  0.20876821  0.44961093    -0.78800
C113        C  0.32213940  0.24765560  0.56462261     0.83400
C114        C  0.25127913  0.17682542  0.44195928     0.83700
O115        O  0.28727449  0.20953839  0.44873543    -0.81200
C116        C  0.32682506  0.33115806  0.63070336     0.80000
N117        N  0.33451562  0.30102010  0.61532374    -0.78300
C118        C  0.31128341  0.27677547  0.58446394     0.82400
N119        N  0.28172976  0.28417961  0.56774015    -0.78300
C120        C  0.27277198  0.31315699  0.58332158     0.82500
N121        N  0.29512181  0.33630018  0.61505975    -0.80000
O122        O  0.13966094  0.24491871  0.44824169    -0.78700
C123        C  0.07473059  0.25173213  0.55843825     0.82300
O124        O  0.09978648  0.35683526  0.44593694    -0.79800
O125        O  0.17370920  0.39010864  0.57526655    -0.81300
O126        O  0.25203415  0.33340501  0.52539419    -0.81100
O127        O  0.20933770  0.29133258  0.44366037    -0.79800
Zn128      Zn  0.11661358  0.27800174  0.47743806     1.55700
O129        O  0.21174734  0.32128753  0.57839670    -0.81200
Cd130      Cd  0.21901838  0.34062281  0.47903107     1.59700
Cd131      Cd  0.15705355  0.37913295  0.47563029     1.59600
O132        O  0.25408378  0.39825412  0.44868765    -0.81100
O133        O  0.16327065  0.33138343  0.49695337    -1.91700
Cd134      Cd  0.16362875  0.33133877  0.55598974     1.59900
O135        O  0.20655198  0.41911683  0.43983859    -0.81100
O136        O  0.10494242  0.28335818  0.57645221    -0.79800
C137        C  0.07263174  0.31891454  0.43522185     0.82800
C138        C  0.17692259  0.25501498  0.43685904     0.82400
O139        O  0.07684131  0.24491827  0.52204747    -0.78700
C140        C  0.24413535  0.32372262  0.56160047     0.83200
O141        O  0.07727899  0.28711867  0.44280422    -0.78800
C142        C  0.24340573  0.42436114  0.43496213     0.83400
C143        C  0.17265851  0.42060309  0.55745440     0.83700
O144        O  0.16431459  0.41950320  0.52101169    -0.81200
C145        C  0.16550563  0.99408065  0.62721253     0.80000
N146        N  0.19841550  0.03246880  0.61494630    -0.78300
C147        C  0.22256357  0.03427624  0.58400186     0.82400
N148        N  0.21376395  0.99750732  0.56558273    -0.78300
C149        C  0.18281983  0.45934007  0.57895443     0.82500
N150        N  0.15811562  0.45777023  0.60910152    -0.80000
C151        C  0.49885699  0.17229746  0.62897995     0.80000
N152        N  0.03617900  0.20059627  0.61114717    -0.78300
C153        C  0.03542688  0.22302757  0.57959285     0.82400
N154        N  0.49732043  0.21570631  0.56467323    -0.78300
C155        C  0.46046269  0.18884012  0.58344864     0.82500
N156        N  0.46133726  0.16717185  0.61561046    -0.80000
C157        C  0.49414293  0.33304879  0.37765697     0.80000
N158        N  0.45738212  0.30293123  0.39432521    -0.78300
C159        C  0.45799476  0.27553942  0.42104280     0.82400
N160        N  0.49545665  0.27916248  0.43202086    -0.78300
C161        C  0.03266762  0.31065075  0.41730320     0.82500
N162        N  0.03195042  0.33740672  0.38992259    -0.80000
C163        C  0.16219985  0.16222677  0.37934502     0.80000
N164        N  0.19248317  0.15566665  0.39566352    -0.78300
C165        C  0.21967442  0.18371480  0.42251154     0.82400
N166        N  0.21566868  0.21729208  0.43390754    -0.78300
C167        C  0.18429982  0.22280281  0.41910589     0.82500
N168        N  0.15768358  0.19541255  0.39168278    -0.80000
C169        C  0.33644695  0.50329927  0.37779534     0.80000
N170        N  0.34295319  0.04045582  0.39384445    -0.78300
C171        C  0.31452222  0.03950195  0.41999798     0.82400
N172        N  0.28099618  0.50157206  0.43132906    -0.78300
C173        C  0.27552926  0.46438251  0.41686062     0.82500
N174        N  0.30319947  0.46525993  0.39000633    -0.80000
C175        C  0.49817354  0.49938568  0.21251480     0.45200
H176        H  0.49836873  0.49934970  0.18000035    -0.03800
C177        C  0.49767073  0.49933520  0.28816801     0.45300
H178        H  0.49750806  0.49920044  0.32068581    -0.03800
C179        C  0.03780150  0.03912147  0.23010747    -0.17500
C180        C  0.45920841  0.49993975  0.22976263    -0.17300
C181        C  0.49737597  0.45958842  0.23022686    -0.17600
C182        C  0.03738510  0.03936102  0.27068046    -0.17600
C183        C  0.45866557  0.49948138  0.27031217    -0.17200
C184        C  0.49744116  0.45975531  0.27072633    -0.17500
C185        C  0.38209428  0.03050655  0.31702754    -0.02100
C186        C  0.36757992  0.50346679  0.35005482     0.07600
C187        C  0.38323080  0.47572289  0.35688956    -0.02200
C188        C  0.40908683  0.47171552  0.32901709    -0.02200
C189        C  0.42525578  0.49989319  0.29630912     0.07700
C190        C  0.41287764  0.03074941  0.29184509    -0.02400
Br191      Br  0.44111873  0.07806605  0.25580441    -0.01000
Br192      Br  0.35883907  0.06688285  0.30548499    -0.01000
Br193      Br  0.41730307  0.42389103  0.33584893    -0.01000
Br194      Br  0.37194550  0.44497666  0.40624986    -0.01000
C195        C  0.14496227  0.11825015  0.31809093    -0.02100
C196        C  0.13154289  0.13125921  0.35129182     0.07600
C197        C  0.08821624  0.11460790  0.35805544    -0.02200
C198        C  0.05855270  0.08843328  0.32991610    -0.02200
C199        C  0.07086990  0.07289801  0.29715461     0.07700
C200        C  0.11478048  0.08709380  0.29256808    -0.02400
Br201      Br  0.13465808  0.05991011  0.25666106    -0.01000
Br202      Br  0.20477948  0.14349614  0.30710041    -0.01000
Br203      Br  0.00254962  0.07914463  0.33674398    -0.01000
Br204      Br  0.06872570  0.12528053  0.40747971    -0.01000
C205        C  0.46708675  0.35098265  0.31700354    -0.02100
C206        C  0.49392395  0.36419981  0.35014040     0.07600
C207        C  0.02147665  0.40790504  0.35742711    -0.02200
C208        C  0.02537913  0.43797822  0.32954730    -0.02200
C209        C  0.49673145  0.42584095  0.29699589     0.07700
C210        C  0.46651212  0.38166327  0.29188774    -0.02400
Br211      Br  0.41975097  0.36212618  0.25539927    -0.01000
Br212      Br  0.43133782  0.29080451  0.30560124    -0.01000
Br213      Br  0.07319161  0.49424104  0.33613172    -0.01000
Br214      Br  0.05169674  0.42726981  0.40702206    -0.01000
C215        C  0.35174613  0.47196378  0.18424431    -0.02100
C216        C  0.36489315  0.49828066  0.15076457     0.07600
C217        C  0.40892795  0.02460244  0.14315823    -0.02200
C218        C  0.43896788  0.02809639  0.17077347    -0.02200
C219        C  0.42596708  0.49992110  0.20336106     0.07700
C220        C  0.38201871  0.47030982  0.20871984    -0.02400
Br221      Br  0.36197755  0.42238807  0.24415492    -0.01000
Br222      Br  0.29221679  0.43868132  0.19724658    -0.01000
Br223      Br  0.49552828  0.07476671  0.16315847    -0.01000
Br224      Br  0.42767647  0.05364233  0.09302116    -0.01000
C225        C  0.02756213  0.41172523  0.20928915    -0.02100
C226        C  0.49753746  0.42592501  0.20419442     0.07600
C227        C  0.46998016  0.41030162  0.17107154    -0.02200
C228        C  0.47395986  0.38425301  0.14317151    -0.02200
C229        C  0.50140093  0.36839283  0.15023675     0.07700
C230        C  0.02707256  0.38089586  0.18380263    -0.02400
Br231      Br  0.06004982  0.35420984  0.19646214    -0.01000
Br232      Br  0.07409685  0.43841782  0.24608038    -0.01000
Br233      Br  0.44291821  0.37224932  0.09394128    -0.01000
Br234      Br  0.42334280  0.41986363  0.16355355    -0.01000
C235        C  0.08715692  0.05987101  0.17140905    -0.02100
C236        C  0.07163547  0.07258536  0.20386701     0.07600
C237        C  0.08641736  0.11695539  0.20853939    -0.02200
C238        C  0.11829346  0.14717469  0.18363546    -0.02200
C239        C  0.13160732  0.13341522  0.15076225     0.07700
C240        C  0.11396247  0.08964304  0.14364696    -0.02400
Br241      Br  0.12360114  0.06973781  0.09399028    -0.01000
Br242      Br  0.07738727  0.00319777  0.16491106    -0.01000
Br243      Br  0.14387601  0.20746070  0.19504077    -0.01000
Br244      Br  0.05945724  0.13735858  0.24406601    -0.01000
C245        C  0.35466507  0.37500865  0.81213352    -0.02100
C246        C  0.36720057  0.36839100  0.84920774     0.07600
C247        C  0.40540390  0.40085027  0.86557960    -0.02200
C248        C  0.43119737  0.43850884  0.84415430    -0.02200
C249        C  0.42362149  0.44007920  0.80331512     0.07700
C250        C  0.38127869  0.41251456  0.79104435    -0.02400
Br251      Br  0.35284439  0.43600317  0.76193121    -0.01000
Br252      Br  0.30011829  0.33374018  0.79076642    -0.01000
Br253      Br  0.46134138  0.48972094  0.87558747    -0.01000
Br254      Br  0.42095384  0.39566242  0.91879397    -0.01000
C255        C  0.03021736  0.12027273  0.85258014    -0.02100
C256        C  0.50081768  0.13432807  0.84703857     0.07600
C257        C  0.47154937  0.11703395  0.81579287    -0.02200
C258        C  0.47248097  0.08699544  0.79006599    -0.02200
C259        C  0.50530038  0.07695554  0.79242091     0.07700
C260        C  0.03435727  0.09427207  0.82445880    -0.02400
Br261      Br  0.08237272  0.08622339  0.82994246    -0.01000
Br262      Br  0.06317228  0.13358513  0.90066448    -0.01000
Br263      Br  0.42537312  0.05682922  0.75534556    -0.01000
Br264      Br  0.42978193  0.13428706  0.80781866    -0.01000
C265        C  0.14805753  0.02634614  0.81248645    -0.02100
C266        C  0.13560158  0.49893354  0.84450172     0.07600
C267        C  0.09198589  0.47046923  0.85076360    -0.02200
C268        C  0.06177752  0.46770495  0.82340830    -0.02200
C269        C  0.07345510  0.49715662  0.79199920     0.07700
C270        C  0.11728156  0.02708906  0.78763476    -0.02400
Br271      Br  0.13677254  0.07380909  0.75120369    -0.01000
Br272      Br  0.20774504  0.06309007  0.80149127    -0.01000
Br273      Br  0.00517416  0.42012950  0.82811005    -0.01000
Br274      Br  0.07220503  0.43736584  0.89873682    -0.01000
C275        C  0.40803380  0.38281568  0.71391680    -0.02100
C276        C  0.42066967  0.42662044  0.70963597     0.07600
C277        C  0.40002880  0.43744445  0.68030880    -0.02200
C278        C  0.37203634  0.40702631  0.65331585    -0.02200
C279        C  0.35769844  0.36324986  0.65901836     0.07700
C280        C  0.37509020  0.35123166  0.69032842    -0.02400
Br281      Br  0.35317715  0.29146091  0.70188206    -0.01000
Br282      Br  0.43546986  0.36504065  0.75141491    -0.01000
Br283      Br  0.35720949  0.42751791  0.60660512    -0.01000
Br284      Br  0.40123877  0.49081403  0.68060793    -0.01000
C285        C  0.47987926  0.09728186  0.64020267    -0.02100
C286        C  0.49884341  0.13932688  0.65456478     0.07600
C287        C  0.02633479  0.15072793  0.68775595    -0.02200
C288        C  0.03147968  0.11961267  0.70807995    -0.02200
C289        C  0.50672633  0.07569252  0.69712719     0.07700
C290        C  0.48776203  0.06720004  0.65865046    -0.02400
Br291      Br  0.48301540  0.02327747  0.62270061    -0.01000
Br292      Br  0.44651015  0.08145457  0.59197749    -0.01000
Br293      Br  0.08124994  0.14043580  0.74090921    -0.01000
Br294      Br  0.05682321  0.20970300  0.70454724    -0.01000
C295        C  0.11334302  0.46265718  0.68280875    -0.02100
C296        C  0.13234686  0.99289097  0.65292846     0.07600
C297        C  0.11696917  0.02068043  0.64483812    -0.02200
C298        C  0.08832947  0.02292967  0.67047392    -0.02200
C299        C  0.06808252  0.99211373  0.70075564     0.07700
C300        C  0.07946305  0.46047276  0.70467271    -0.02400
Br301      Br  0.04738906  0.41159181  0.73768876    -0.01000
Br302      Br  0.13383482  0.42400072  0.69465524    -0.01000
Br303      Br  0.08567726  0.07413305  0.66625152    -0.01000
Br304      Br  0.13197150  0.05378213  0.59653766    -0.01000
C305        C  0.50363958  0.50365226  0.78635671     0.45200
H306        H  0.50904843  0.50769246  0.81763070    -0.03800
C307        C  0.99770564  0.99635833  0.71138679     0.45300
H308        H  0.99544664  0.98955334  0.68051447    -0.03800
C309        C  0.45874152  0.96665352  0.77317075    -0.17500
C310        C  0.50633068  0.54323972  0.76629766    -0.17300
C311        C  0.03892981  0.99725618  0.76767359    -0.17600
C312        C  0.45682113  0.96188218  0.73257564    -0.17600
C313        C  0.00421696  0.54077870  0.72472944    -0.17200
C314        C  0.03596273  0.49429840  0.72709227    -0.17500
O315        O  0.24527624  0.64219602  0.05229667    -0.78700
C316        C  0.25080451  0.57892414  0.94065023     0.82300
O317        O  0.35689915  0.60256183  0.05462613    -0.79800
O318        O  0.39251196  0.67454667  0.92351300    -0.81300
O319        O  0.33577471  0.75592418  0.97851246    -0.79500
O320        O  0.29183447  0.71173385  0.05923510    -0.79800
Zn321      Zn  0.27878550  0.62003387  0.02212634     1.55700
O322        O  0.32711732  0.71874327  0.92345121    -0.81200
Cd323      Cd  0.34095392  0.72092237  0.02364309     1.59700
Cd324      Cd  0.37982369  0.65842852  0.02269735     1.59600
O325        O  0.39805247  0.75499193  0.05386062    -0.81100
O326        O  0.33259829  0.66596380  0.00255881    -1.91700
Cd327      Cd  0.33395335  0.66708213  0.94323282     1.59900
O328        O  0.42113368  0.70850515  0.05706676    -0.81100
O329        O  0.28266866  0.60872534  0.92240278    -0.79800
C330        C  0.31915241  0.57602481  0.06540241     0.82800
C331        C  0.25540439  0.67927418  0.06514402     0.82400
O332        O  0.24529354  0.58115474  0.97728531    -0.78700
C333        C  0.32855255  0.75030429  0.94178425     0.83200
O334        O  0.28779000  0.58062285  0.05665187    -0.78800
C335        C  0.42531012  0.74475142  0.06456492     0.83400
C336        C  0.42177187  0.67139428  0.94146199     0.83700
O337        O  0.41942292  0.66243480  0.97784389    -0.81200
C338        C  0.33688997  0.83631350  0.87633680     0.80000
N339        N  0.30462790  0.84122758  0.89019506    -0.78300
C340        C  0.27958207  0.81601602  0.91959874     0.82400
N341        N  0.28774718  0.78652601  0.93574490    -0.78300
C342        C  0.31897106  0.78034608  0.92134385     0.82500
N343        N  0.34412243  0.80587053  0.89196828    -0.80000
O344        O  0.16900758  0.92051986  0.97452861    -0.78700
C345        C  0.07815968  0.82418889  0.06106050     0.82300
O346        O  0.25540193  0.89624343  0.05118363    -0.79800
O347        O  0.14083715  0.74474854  0.05055742    -0.81300
O348        O  0.10743893  0.78256752  0.92031744    -0.81100
O349        O  0.17732334  0.89252479  0.91922973    -0.79800
Zn350      Zn  0.16096954  0.88090644  0.01870902     1.55700
O351        O  0.07850325  0.74658788  0.97582441    -0.81200
Cd352      Cd  0.16741877  0.83287624  0.93976902     1.59700
Cd353      Cd  0.22103003  0.84056316  0.01963728     1.59600
O354        O  0.21750292  0.82316872  0.92071388    -0.81100
O355        O  0.16721477  0.83431329  0.99902348    -1.91700
Cd356      Cd  0.11983653  0.78036453  0.02029604     1.59900
O357        O  0.25575925  0.83474752  0.97551096    -0.81100
O358        O  0.08169670  0.79139965  0.05601838    -0.79800
C359        C  0.24448749  0.92279617  0.06246877     0.82800
C360        C  0.17683293  0.92291807  0.93797942     0.82400
O361        O  0.10526880  0.86085105  0.04764028    -0.78700
C362        C  0.07665598  0.75203930  0.93913515     0.83200
O363        O  0.20869935  0.91864772  0.05398402    -0.78800
C364        C  0.24933814  0.82555458  0.93920879     0.83400
C365        C  0.17802787  0.75464610  0.06187895     0.83700
O366        O  0.21048131  0.79064077  0.05457733    -0.81200
C367        C  0.16307571  0.66422890  0.12334619     0.80000
N368        N  0.15708683  0.69526999  0.10761944    -0.78300
C369        C  0.18502002  0.72284889  0.08111943     0.82400
N370        N  0.21814447  0.71861893  0.06942093    -0.78300
C371        C  0.22326394  0.68650573  0.08344691     0.82500
N372        N  0.19571546  0.65926964  0.11052338    -0.80000
C373        C  0.16715433  0.00018965  0.87364741     0.80000
N374        N  0.19652365  0.53840266  0.88973862    -0.78300
C375        C  0.22081266  0.53884769  0.92033558     0.82400
N376        N  0.21482993  0.00091242  0.93525578    -0.78300
C377        C  0.18667196  0.96308658  0.91826506     0.82500
N378        N  0.16303054  0.96291139  0.88742303    -0.80000
C379        C  0.50249455  0.83795866  0.12224494     0.80000
N380        N  0.03955634  0.84574214  0.10603113    -0.78300
C381        C  0.03932548  0.81758264  0.07966231     0.82400
N382        N  0.50199564  0.78278259  0.06859930    -0.78300
C383        C  0.46485308  0.77683897  0.08283063     0.82500
N384        N  0.46515656  0.80430694  0.10974325    -0.80000
C385        C  0.49908962  0.66441206  0.87529590     0.80000
N386        N  0.03641297  0.69777469  0.88889617    -0.78300
C387        C  0.03659624  0.72191027  0.91927391     0.82400
N388        N  0.49894512  0.71318066  0.93552120    -0.78300
C389        C  0.46140291  0.68133706  0.92116534     0.82500
N390        N  0.46162589  0.65626411  0.89164187    -0.80000
C391        C  0.33445222  0.99858379  0.12371103     0.80000
N392        N  0.33827497  0.53619798  0.11103547    -0.78300
C393        C  0.31059146  0.53652794  0.08468691     0.82400
N394        N  0.27904051  0.99919514  0.07114221    -0.78300
C395        C  0.27516009  0.96156471  0.08260675     0.82500
N396        N  0.30331156  0.96123590  0.10838745    -0.80000
O397        O  0.41716450  0.66811588  0.52806588    -0.78700
C398        C  0.32108782  0.57803738  0.44017583     0.82300
O399        O  0.39326390  0.75591198  0.45248245    -0.79800
O400        O  0.24157746  0.63968677  0.45402105    -0.81300
O401        O  0.28230268  0.60613346  0.58326378    -0.81100
O402        O  0.39061389  0.67811952  0.58335216    -0.79800
Zn403      Zn  0.37768297  0.66036003  0.48411761     1.55700
O404        O  0.24546265  0.57734893  0.52805400    -0.81200
Cd405      Cd  0.33094310  0.66650134  0.56322468     1.59700
Cd406      Cd  0.33756878  0.72054044  0.48345387     1.59600
O407        O  0.32020130  0.71565185  0.58258693    -0.81100
O408        O  0.33161122  0.66650080  0.50398783    -1.91700
Cd409      Cd  0.27772400  0.61886585  0.48328179     1.59900
O410        O  0.33137382  0.75454419  0.52811579    -0.81100
O411        O  0.28846471  0.58117882  0.44628389    -0.79800
C412        C  0.41984296  0.74504970  0.44155284     0.82800
C413        C  0.42036853  0.67720911  0.56441392     0.82400
O414        O  0.35757885  0.60509414  0.45369952    -0.78700
C415        C  0.25167017  0.57528437  0.56457500     0.83200
O416        O  0.41555903  0.70892840  0.44988153    -0.78800
C417        C  0.32214308  0.74755156  0.56432125     0.83400
C418        C  0.25150440  0.67693852  0.44202626     0.83700
O419        O  0.28758942  0.70961720  0.44854085    -0.81200
C420        C  0.32744410  0.83171300  0.62967891     0.80000
N421        N  0.33487612  0.80134211  0.61450905    -0.78300
C422        C  0.31128723  0.77671756  0.58401115     0.82400
N423        N  0.28162369  0.78400505  0.56733145    -0.78300
C424        C  0.27293679  0.81327148  0.58270781     0.82500
N425        N  0.29566533  0.83678645  0.61413538    -0.80000
O426        O  0.13963707  0.74501563  0.44781625    -0.78700
C427        C  0.07456221  0.75166166  0.55772937     0.82300
O428        O  0.09957179  0.85703037  0.44573743    -0.79800
O429        O  0.17355383  0.88987079  0.57507829    -0.81300
O430        O  0.25219522  0.83370487  0.52488303    -0.81100
O431        O  0.20935465  0.79131853  0.44344321    -0.79800
Zn432      Zn  0.11654119  0.77818913  0.47678753     1.55700
O433        O  0.21169904  0.82105937  0.57781817    -0.81200
Cd434      Cd  0.21896718  0.84071154  0.47858695     1.59700
Cd435      Cd  0.15693448  0.87925293  0.47536028     1.59600
O436        O  0.25388773  0.89819415  0.44805269    -0.81100
O437        O  0.16319360  0.83145700  0.49650448    -1.91700
Cd438      Cd  0.16354302  0.83117555  0.55555311     1.59900
O439        O  0.20645528  0.91925208  0.43954219    -0.81100
O440        O  0.10483622  0.78308898  0.57589169    -0.79800
C441        C  0.07250123  0.81917289  0.43476459     0.82800
C442        C  0.17693745  0.75501106  0.43664408     0.82400
O443        O  0.07666193  0.74509033  0.52128295    -0.78700
C444        C  0.24421570  0.82376646  0.56103240     0.83200
O445        O  0.07726418  0.78738810  0.44206566    -0.78800
C446        C  0.24324177  0.92437284  0.43446119     0.83400
C447        C  0.17252909  0.92043760  0.55737289     0.83700
O448        O  0.16425654  0.91947897  0.52092193    -0.81200
C449        C  0.16554257  0.49435413  0.62701848     0.80000
N450        N  0.19849713  0.53272148  0.61479897    -0.78300
C451        C  0.22276634  0.53447674  0.58398662     0.82400
N452        N  0.21398294  0.49768925  0.56560370    -0.78300
C453        C  0.18269597  0.95913199  0.57897985     0.82500
N454        N  0.15806551  0.95751381  0.60922900    -0.80000
C455        C  0.49946602  0.67181513  0.62875547     0.80000
N456        N  0.03586636  0.70054914  0.61041700    -0.78300
C457        C  0.03519345  0.72291193  0.57876973     0.82400
N458        N  0.49769126  0.71568392  0.56491964    -0.78300
C459        C  0.46084446  0.68843965  0.58354055     0.82500
N460        N  0.46182440  0.66644069  0.61541626    -0.80000
C461        C  0.49446542  0.83320805  0.37791549     0.80000
N462        N  0.45771409  0.80308475  0.39458796    -0.78300
C463        C  0.45835843  0.77573024  0.42133163     0.82400
N464        N  0.49583381  0.77942311  0.43235443    -0.78300
C465        C  0.03251155  0.81092735  0.41683399     0.82500
N466        N  0.03175553  0.83790815  0.38971319    -0.80000
C467        C  0.16216866  0.66193943  0.37963819     0.80000
N468        N  0.19255320  0.65553732  0.39593378    -0.78300
C469        C  0.21982907  0.68375216  0.42261942     0.82400
N470        N  0.21580926  0.71736595  0.43388642    -0.78300
C471        C  0.18432373  0.72271757  0.41909572     0.82500
N472        N  0.15762112  0.69513947  0.39183497    -0.80000
C473        C  0.33667417  0.00330151  0.37772063     0.80000
N474        N  0.34279796  0.54046301  0.39392617    -0.78300
C475        C  0.31456820  0.53951846  0.42029975     0.82400
N476        N  0.28081372  0.00155416  0.43080004    -0.78300
C477        C  0.27539636  0.96437669  0.41635723     0.82500
N478        N  0.30328430  0.96526266  0.38974382    -0.80000
C479        C  0.49882493  0.99963765  0.21273094     0.45200
H480        H  0.49897161  0.99971088  0.18021670    -0.03800
C481        C  0.49842064  0.99936307  0.28838292     0.45300
H482        H  0.49834603  0.99912558  0.32089986    -0.03800
C483        C  0.03822715  0.53879014  0.23043702    -0.17500
C484        C  0.45989766  0.00016466  0.23010513    -0.17300
C485        C  0.49803770  0.95978022  0.23027952    -0.17600
C486        C  0.03766858  0.53886422  0.27099742    -0.17600
C487        C  0.45940428  0.99960656  0.27066398    -0.17200
C488        C  0.49814953  0.95984341  0.27077423    -0.17500
C489        C  0.38145549  0.53040672  0.31685217    -0.02100
C490        C  0.36798817  0.00347929  0.35016227     0.07600
C491        C  0.38361452  0.97571718  0.35710315    -0.02200
C492        C  0.40977668  0.97187533  0.32942829    -0.02200
C493        C  0.42605509  0.00008054  0.29673412     0.07700
C494        C  0.41204022  0.53054258  0.29146319    -0.02400
Br495      Br  0.43995904  0.57767630  0.25517802    -0.01000
Br496      Br  0.35826962  0.56690524  0.30559560    -0.01000
Br497      Br  0.41842178  0.92434190  0.33656059    -0.01000
Br498      Br  0.37177046  0.94464761  0.40632308    -0.01000
C499        C  0.14508253  0.61798448  0.31845568    -0.02100
C500        C  0.13156254  0.63088247  0.35165002     0.07600
C501        C  0.08821898  0.61405739  0.35844653    -0.02200
C502        C  0.05859579  0.58776717  0.33033383    -0.02200
C503        C  0.07103570  0.57236215  0.29755991     0.07700
C504        C  0.11498673  0.58674080  0.29296360    -0.02400
Br505      Br  0.13508658  0.55970592  0.25711425    -0.01000
Br506      Br  0.20492715  0.64354577  0.30740733    -0.01000
Br507      Br  0.00246909  0.57814854  0.33720300    -0.01000
Br508      Br  0.06869078  0.62472785  0.40784557    -0.01000
C509        C  0.46737004  0.85108521  0.31724743    -0.02100
C510        C  0.49427420  0.86431363  0.35034278     0.07600
C511        C  0.02103189  0.90834386  0.35739331    -0.02200
C512        C  0.02492465  0.93845860  0.32955639    -0.02200
C513        C  0.49745435  0.92589423  0.29694242     0.07700
C514        C  0.46700840  0.88177290  0.29198850    -0.02400
Br515      Br  0.42030003  0.86240445  0.25547529    -0.01000
Br516      Br  0.43122081  0.79090293  0.30610995    -0.01000
Br517      Br  0.07270088  0.99474628  0.33620347    -0.01000
Br518      Br  0.05107135  0.92764005  0.40706856    -0.01000
C519        C  0.35244561  0.97220850  0.18454761    -0.02100
C520        C  0.36560432  0.99846648  0.15101858     0.07600
C521        C  0.40820251  0.52436799  0.14282806    -0.02200
C522        C  0.43827946  0.52775802  0.17034358    -0.02200
C523        C  0.42664868  0.00022335  0.20376306     0.07700
C524        C  0.38270604  0.97058108  0.20907276    -0.02400
Br525      Br  0.36267381  0.92267584  0.24452627    -0.01000
Br526      Br  0.29292844  0.93901747  0.19759330    -0.01000
Br527      Br  0.49490650  0.57420852  0.16251069    -0.01000
Br528      Br  0.42686132  0.55349386  0.09270987    -0.01000
C529        C  0.02710960  0.91213419  0.20924977    -0.02100
C530        C  0.49818091  0.92617324  0.20414831     0.07600
C531        C  0.47062318  0.91061794  0.17102138    -0.02200
C532        C  0.47453168  0.88452193  0.14311802    -0.02200
C533        C  0.50180152  0.86847155  0.15023035     0.07700
C534        C  0.02678207  0.88143842  0.18368661    -0.02400
Br535      Br  0.06013721  0.85512223  0.19619320    -0.01000
Br536      Br  0.07365509  0.93897942  0.24600929    -0.01000
Br537      Br  0.44368236  0.87272780  0.09380716    -0.01000
Br538      Br  0.42408136  0.92033194  0.16350589    -0.01000
C539        C  0.08778998  0.55980923  0.17193485    -0.02100
C540        C  0.07209200  0.57238704  0.20434099     0.07600
C541        C  0.08664258  0.61670644  0.20902893    -0.02200
C542        C  0.11838530  0.64702998  0.18409068    -0.02200
C543        C  0.13183486  0.63338692  0.15122765     0.07700
C544        C  0.11446861  0.58963679  0.14416015    -0.02400
Br545      Br  0.12425657  0.56978450  0.09454048    -0.01000
Br546      Br  0.07843669  0.50326859  0.16556480    -0.01000
Br547      Br  0.14354810  0.70729297  0.19541115    -0.01000
Br548      Br  0.05952217  0.63686475  0.24462983    -0.01000
C549        C  0.35604005  0.87293826  0.81170176    -0.02100
C550        C  0.36811143  0.86940479  0.84997812     0.07600
C551        C  0.40461172  0.90425633  0.86635514    -0.02200
C552        C  0.42962911  0.94116324  0.84367084    -0.02200
C553        C  0.42278010  0.94019242  0.80242941     0.07700
C554        C  0.38121826  0.91020382  0.78983354    -0.02400
Br555      Br  0.34992212  0.93044455  0.76061230    -0.01000
Br556      Br  0.30346735  0.82814146  0.78993826    -0.01000
Br557      Br  0.45747625  0.99430409  0.87259847    -0.01000
Br558      Br  0.41879695  0.90285291  0.92085366    -0.01000
C559        C  0.03066150  0.62066294  0.85203002    -0.02100
C560        C  0.50043487  0.63380936  0.84706559     0.07600
C561        C  0.47150096  0.61672999  0.81556672    -0.02200
C562        C  0.47273836  0.58691061  0.78974484    -0.02200
C563        C  0.50540621  0.57664513  0.79249039     0.07700
C564        C  0.03477304  0.59480059  0.82373913    -0.02400
Br565      Br  0.08299295  0.58702736  0.82873489    -0.01000
Br566      Br  0.06374371  0.63376439  0.90001088    -0.01000
Br567      Br  0.42641727  0.55774170  0.75401594    -0.01000
Br568      Br  0.42977339  0.63401172  0.80742455    -0.01000
C569        C  0.14819486  0.52644310  0.81179040    -0.02100
C570        C  0.13547833  0.99869410  0.84509123     0.07600
C571        C  0.09187343  0.97012566  0.85128602    -0.02200
C572        C  0.06168533  0.96727720  0.82386307    -0.02200
C573        C  0.07334484  0.99681249  0.79253051     0.07700
C574        C  0.11743194  0.52723907  0.78693976    -0.02400
Br575      Br  0.13703589  0.57374760  0.75022609    -0.01000
Br576      Br  0.20788736  0.56284143  0.80062994    -0.01000
Br577      Br  0.00518123  0.91950552  0.82836062    -0.01000
Br578      Br  0.07207552  0.93708249  0.89928854    -0.01000
C579        C  0.40908034  0.88349520  0.71248530    -0.02100
C580        C  0.42087852  0.92710929  0.70875979     0.07600
C581        C  0.39980785  0.93782968  0.67983274    -0.02200
C582        C  0.37219101  0.90753748  0.65258887    -0.02200
C583        C  0.35843017  0.86382130  0.65787756     0.07700
C584        C  0.37634875  0.85186771  0.68880359    -0.02400
Br585      Br  0.35549310  0.79215888  0.69982289    -0.01000
Br586      Br  0.43701285  0.86605832  0.74977984    -0.01000
Br587      Br  0.35717142  0.92823689  0.60616451    -0.01000
Br588      Br  0.39936226  0.99037217  0.68153982    -0.01000
C589        C  0.48180907  0.59712850  0.63932219    -0.02100
C590        C  0.49975806  0.63888919  0.65414778     0.07600
C591        C  0.02597960  0.65079878  0.68702686    -0.02200
C592        C  0.03117170  0.61973342  0.70739008    -0.02200
C593        C  0.50749098  0.57536937  0.69701778     0.07700
C594        C  0.48953197  0.56708227  0.65809776    -0.02400
Br595      Br  0.48565228  0.52335261  0.62236853    -0.01000
Br596      Br  0.45017761  0.58187482  0.59010827    -0.01000
Br597      Br  0.08115603  0.64065003  0.73992276    -0.01000
Br598      Br  0.05653067  0.70981981  0.70368920    -0.01000
C599        C  0.11316251  0.96219753  0.68298271    -0.02100
C600        C  0.13234754  0.49317189  0.65261158     0.07600
C601        C  0.11674256  0.52070904  0.64425326    -0.02200
C602        C  0.08801107  0.52292879  0.66978373    -0.02200
C603        C  0.06794170  0.49228076  0.70022989     0.07700
C604        C  0.07938212  0.96012061  0.70496734    -0.02400
Br605      Br  0.04707994  0.91114303  0.73782306    -0.01000
Br606      Br  0.13319841  0.92308774  0.69443643    -0.01000
Br607      Br  0.08508183  0.57395879  0.66526696    -0.01000
Br608      Br  0.13168716  0.55355705  0.59580858    -0.01000
C609        C  0.00361047  0.00361507  0.78625852     0.45200
H610        H  0.00887420  0.00748289  0.81762651    -0.03800
C611        C  0.49744342  0.49609329  0.71149919     0.45300
H612        H  0.49505695  0.48910797  0.68080841    -0.03800
C613        C  0.95944249  0.46674083  0.77319226    -0.17500
C614        C  0.00636603  0.04328021  0.76630537    -0.17300
C615        C  0.53885716  0.49717833  0.76770123    -0.17600
C616        C  0.95724865  0.46184755  0.73257943    -0.17600
C617        C  0.50380218  0.04076907  0.72512555    -0.17200
C618        C  0.53543167  0.99414807  0.72742645    -0.17500
O619        O  0.74519361  0.14211798  0.05220261    -0.78700
C620        C  0.75049025  0.07874710  0.94049462     0.82300
O621        O  0.85683475  0.10270681  0.05458892    -0.79800
O622        O  0.89235187  0.17433378  0.92337474    -0.81300
O623        O  0.83503204  0.25555589  0.97779617    -0.79500
O624        O  0.79170418  0.21171362  0.05887049    -0.79800
Zn625      Zn  0.77860243  0.11994613  0.02190797     1.55700
O626        O  0.82677086  0.21839419  0.92282043    -0.81200
Cd627      Cd  0.84066838  0.22093948  0.02305964     1.59700
Cd628      Cd  0.87961394  0.15854236  0.02260791     1.59600
O629        O  0.89795591  0.25536262  0.05297157    -0.81100
O630        O  0.83235509  0.16590503  0.00224742    -1.91700
Cd631      Cd  0.83371973  0.16686256  0.94290849     1.59900
O632        O  0.92086581  0.20877073  0.05685513    -0.81100
O633        O  0.78242108  0.10842293  0.92220955    -0.79800
C634        C  0.81907564  0.07600276  0.06520000     0.82800
C635        C  0.75533476  0.17923039  0.06496041     0.82400
O636        O  0.74498330  0.08110654  0.97710902    -0.78700
C637        C  0.82792519  0.24987483  0.94105340     0.83200
O638        O  0.78765927  0.08046596  0.05632533    -0.78800
C639        C  0.92516018  0.24514569  0.06393446     0.83400
C640        C  0.92165761  0.17137101  0.94145697     0.83700
O641        O  0.91930224  0.16257781  0.97787389    -0.81200
C642        C  0.83600296  0.33552926  0.87517404     0.80000
N643        N  0.80404528  0.34079640  0.88932188    -0.78300
C644        C  0.77922384  0.31587193  0.91898726     0.82400
N645        N  0.78733374  0.28634263  0.93512570    -0.78300
C646        C  0.81822534  0.27979032  0.92047905     0.82500
N647        N  0.84311284  0.30499064  0.89081540    -0.80000
O648        O  0.66886757  0.42064377  0.97468451    -0.78700
C649        C  0.57830368  0.32404907  0.06129212     0.82300
O650        O  0.75555436  0.39649460  0.05095304    -0.79800
O651        O  0.64104148  0.24488245  0.05040426    -0.81300
O652        O  0.60745230  0.28303914  0.92036201    -0.81100
O653        O  0.67733114  0.39280172  0.91935340    -0.79800
Zn654      Zn  0.66094694  0.38096343  0.01878453     1.55700
O655        O  0.57860735  0.24689086  0.97581753    -0.81200
Cd656      Cd  0.66745601  0.33317973  0.93976061     1.59700
Cd657      Cd  0.72122608  0.34073583  0.01942829     1.59600
O658        O  0.71736969  0.32338144  0.92042613    -0.81100
O659        O  0.66735491  0.33450398  0.99900158    -1.91700
Cd660      Cd  0.62004447  0.28051893  0.02024731     1.59900
O661        O  0.75578884  0.33482597  0.97509090    -0.81100
O662        O  0.58198559  0.29136295  0.05618692    -0.79800
C663        C  0.74453331  0.42293310  0.06237468     0.82800
C664        C  0.67673569  0.42311093  0.93813947     0.82400
O665        O  0.60525970  0.36074981  0.04782863    -0.78700
C666        C  0.57670118  0.25247992  0.93916524     0.83200
O667        O  0.70867265  0.41867302  0.05402450    -0.78800
C668        C  0.74922402  0.32565599  0.93877877     0.83400
C669        C  0.67821838  0.25479920  0.06176991     0.83700
O670        O  0.71068043  0.29079844  0.05444839    -0.81200
C671        C  0.66304912  0.16424657  0.12319124     0.80000
N672        N  0.65716388  0.19538709  0.10752853    -0.78300
C673        C  0.68515787  0.22298719  0.08106438     0.82400
N674        N  0.71823145  0.21868759  0.06936014    -0.78300
C675        C  0.72324754  0.18649021  0.08331892     0.82500
N676        N  0.69563038  0.15920995  0.11033238    -0.80000
C677        C  0.66699634  0.50029120  0.87377179     0.80000
N678        N  0.69594396  0.03810377  0.88981360    -0.78300
C679        C  0.72041455  0.03863325  0.92028457     0.82400
N680        N  0.71474662  0.50109072  0.93532995    -0.78300
C681        C  0.68650550  0.46324509  0.91843944     0.82500
N682        N  0.66281908  0.46302429  0.88762525    -0.80000
C683        C  0.00247275  0.33834371  0.12159789     0.80000
N684        N  0.53962705  0.34518153  0.10658332    -0.78300
C685        C  0.53945458  0.31723150  0.08000604     0.82400
N686        N  0.00187806  0.28313109  0.06794241    -0.78300
C687        C  0.96474643  0.27732835  0.08208021     0.82500
N688        N  0.96509510  0.30482293  0.10899071    -0.80000
C689        C  0.99895182  0.16418152  0.87547429     0.80000
N690        N  0.53655670  0.19833251  0.88889690    -0.78300
C691        C  0.53666879  0.22240597  0.91928923     0.82400
N692        N  0.99887141  0.21304267  0.93564057    -0.78300
C693        C  0.96130899  0.18124879  0.92124730     0.82500
N694        N  0.96150151  0.15614174  0.89174989    -0.80000
C695        C  0.83422742  0.49872801  0.12385804     0.80000
N696        N  0.83830259  0.03624991  0.11084721    -0.78300
C697        C  0.81060019  0.03651566  0.08448028     0.82400
N698        N  0.77902098  0.49933415  0.07105097    -0.78300
C699        C  0.77513411  0.46170729  0.08254517     0.82500
N700        N  0.80318666  0.46138402  0.10844364    -0.80000
O701        O  0.91720841  0.16872742  0.52865965    -0.78700
C702        C  0.82135653  0.07831951  0.44086630     0.82300
O703        O  0.89331761  0.25639708  0.45332596    -0.79800
O704        O  0.74190372  0.13985842  0.45406935    -0.81300
O705        O  0.78185250  0.10581318  0.58373333    -0.81100
O706        O  0.89031553  0.17796728  0.58408816    -0.79800
Zn707      Zn  0.87770112  0.16073711  0.48470163     1.55700
O708        O  0.74498079  0.07741271  0.52846421    -0.81200
Cd709      Cd  0.83062295  0.16628306  0.56390789     1.59700
Cd710      Cd  0.83759568  0.22079264  0.48429887     1.59600
O711        O  0.81974986  0.21529331  0.58342128    -0.81100
O712        O  0.83151823  0.16662115  0.50465520    -1.91700
Cd713      Cd  0.77770236  0.11898249  0.48381557     1.59900
O714        O  0.83113532  0.25448134  0.52910826    -0.81100
O715        O  0.78865512  0.08129711  0.44704441    -0.79800
C716        C  0.91975861  0.24545665  0.44213456     0.82800
C717        C  0.92026116  0.17750100  0.56507227     0.82400
O718        O  0.85783274  0.10549544  0.45432602    -0.78700
C719        C  0.75111379  0.07514035  0.56497179     0.83200
O720        O  0.91540386  0.20928014  0.45034150    -0.78800
C721        C  0.82173778  0.24727369  0.56527252     0.83400
C722        C  0.75185497  0.17716566  0.44223546     0.83700
O723        O  0.78777514  0.20988762  0.44919361    -0.81200
C724        C  0.82669855  0.33122672  0.63069482     0.80000
N725        N  0.83415867  0.30083799  0.61560952    -0.78300
C726        C  0.81070656  0.27627567  0.58502134     0.82400
N727        N  0.78115066  0.28362453  0.56819925    -0.78300
C728        C  0.77242166  0.31289218  0.58348424     0.82500
N729        N  0.79502624  0.33637774  0.61498286    -0.80000
O730        O  0.63968054  0.24468924  0.44783227    -0.78700
C731        C  0.57446132  0.25132118  0.55791176     0.82300
O732        O  0.59955323  0.35651951  0.44553895    -0.79800
O733        O  0.67323083  0.38971972  0.57497970    -0.81300
O734        O  0.75184802  0.33313828  0.52542366    -0.81100
O735        O  0.70937886  0.29114339  0.44359801    -0.79800
Zn736      Zn  0.61647027  0.27770438  0.47695576     1.55700
O737        O  0.71137010  0.32095461  0.57828454    -0.81200
Cd738      Cd  0.71889599  0.34035474  0.47896160     1.59700
Cd739      Cd  0.65683280  0.37880621  0.47528242     1.59600
O740        O  0.75395984  0.39796870  0.44863826    -0.81100
O741        O  0.66305494  0.33106173  0.49664586    -1.91700
Cd742      Cd  0.66330384  0.33099143  0.55568751     1.59900
O743        O  0.70639521  0.41875102  0.43951583    -0.81100
O744        O  0.60461553  0.28293324  0.57598795    -0.79800
C745        C  0.57243327  0.31861882  0.43472888     0.82800
C746        C  0.67702051  0.25483429  0.43664843     0.82400
O747        O  0.57664252  0.24455633  0.52151827    -0.78700
C748        C  0.74383258  0.32342722  0.56161455     0.83200
O749        O  0.57712573  0.28683097  0.44224567    -0.78800
C750        C  0.74328232  0.42402540  0.43478419     0.83400
C751        C  0.67225374  0.42024401  0.55714289     0.83700
O752        O  0.66406383  0.41919038  0.52066560    -0.81200
C753        C  0.66470435  0.99390273  0.62709108     0.80000
N754        N  0.69762091  0.03235376  0.61495661    -0.78300
C755        C  0.72207547  0.03425101  0.58424255     0.82400
N756        N  0.71347191  0.99752577  0.56584435    -0.78300
C757        C  0.68232290  0.45896208  0.57865787     0.82500
N758        N  0.65768078  0.45730550  0.60890673    -0.80000
C759        C  0.99945365  0.17219773  0.62932131     0.80000
N760        N  0.53566876  0.20041522  0.61074571    -0.78300
C761        C  0.53507976  0.22267814  0.57897385     0.82400
N762        N  0.99757561  0.21598743  0.56546632    -0.78300
C763        C  0.96076645  0.18882020  0.58418393     0.82500
N764        N  0.96180134  0.16687498  0.61607793    -0.80000
C765        C  0.99438715  0.33321323  0.37801440     0.80000
N766        N  0.95762156  0.30329384  0.39486265    -0.78300
C767        C  0.95824334  0.27606185  0.42178563     0.82400
N768        N  0.99568735  0.27965631  0.43275534    -0.78300
C769        C  0.53246143  0.31036282  0.41676330     0.82500
N770        N  0.53173504  0.33730280  0.38957649    -0.80000
C771        C  0.66273472  0.16200719  0.37947397     0.80000
N772        N  0.69318144  0.15573602  0.39581403    -0.78300
C773        C  0.72032530  0.18397606  0.42255795     0.82400
N774        N  0.71612145  0.21747172  0.43382302    -0.78300
C775        C  0.68457894  0.22269491  0.41899848     0.82500
N776        N  0.65796935  0.19507520  0.39170356    -0.80000
C777        C  0.83656295  0.50288750  0.37785861     0.80000
N778        N  0.84321929  0.04094407  0.39452430    -0.78300
C779        C  0.81494678  0.03988158  0.42091716     0.82400
N780        N  0.78086765  0.50123115  0.43108619    -0.78300
C781        C  0.77545299  0.46402801  0.41670217     0.82500
N782        N  0.80324309  0.46487191  0.39000503    -0.80000
C783        C  0.99872753  0.49959691  0.21260397     0.45200
H784        H  0.99897832  0.49973926  0.18009073    -0.03800
C785        C  0.99816824  0.49921106  0.28825506     0.45300
H786        H  0.99802225  0.49895767  0.32077564    -0.03800
C787        C  0.53839451  0.03884169  0.23048586    -0.17500
C788        C  0.95973896  0.50004215  0.22991953    -0.17300
C789        C  0.99793643  0.45972527  0.23011398    -0.17600
C790        C  0.53792570  0.03894317  0.27105861    -0.17600
C791        C  0.95914912  0.49940743  0.27047146    -0.17200
C792        C  0.99799733  0.45972447  0.27062388    -0.17500
C793        C  0.88188353  0.03109014  0.31727914    -0.02100
C794        C  0.86772683  0.50302014  0.35013681     0.07600
C795        C  0.88334688  0.47522363  0.35691417    -0.02200
C796        C  0.90942429  0.47141955  0.32912064    -0.02200
C797        C  0.92567789  0.49971414  0.29649402     0.07700
C798        C  0.91232965  0.03114068  0.29174583    -0.02400
Br799      Br  0.94005605  0.07816774  0.25531773    -0.01000
Br800      Br  0.85887292  0.06779514  0.30628449    -0.01000
Br801      Br  0.91793135  0.42376452  0.33594110    -0.01000
Br802      Br  0.87161768  0.44402800  0.40605107    -0.01000
C803        C  0.64552004  0.11799747  0.31828353    -0.02100
C804        C  0.63209943  0.13077853  0.35162216     0.07600
C805        C  0.58878265  0.11368956  0.35871159    -0.02200
C806        C  0.55906198  0.08757355  0.33060019    -0.02200
C807        C  0.57139419  0.07234810  0.29761231     0.07700
C808        C  0.61533400  0.08674258  0.29284884    -0.02400
Br809      Br  0.63530497  0.05972372  0.25684525    -0.01000
Br810      Br  0.70532149  0.14366594  0.30701451    -0.01000
Br811      Br  0.50299926  0.07805483  0.33778131    -0.01000
Br812      Br  0.56947540  0.12371484  0.40852648    -0.01000
C813        C  0.96754251  0.35098243  0.31709553    -0.02100
C814        C  0.99429142  0.36427600  0.35029547     0.07600
C815        C  0.52087594  0.40781651  0.35751248    -0.02200
C816        C  0.52465768  0.43800094  0.32980570    -0.02200
C817        C  0.99737491  0.42578643  0.29680201     0.07700
C818        C  0.96711500  0.38160921  0.29177941    -0.02400
Br819      Br  0.92055549  0.36202833  0.25506080    -0.01000
Br820      Br  0.93178479  0.29077436  0.30586801    -0.01000
Br821      Br  0.57216370  0.49440838  0.33676031    -0.01000
Br822      Br  0.55083429  0.42695683  0.40724177    -0.01000
C823        C  0.85228830  0.47221768  0.18454486    -0.02100
C824        C  0.86540469  0.49860865  0.15110752     0.07600
C825        C  0.90820645  0.02445731  0.14276017    -0.02200
C826        C  0.93827807  0.02811245  0.17039869    -0.02200
C827        C  0.92650879  0.50009703  0.20356832     0.07700
C828        C  0.88257698  0.47044170  0.20889608    -0.02400
Br829      Br  0.86261646  0.42229452  0.24405275    -0.01000
Br830      Br  0.79280199  0.43904247  0.19770423    -0.01000
Br831      Br  0.99482122  0.07476660  0.16262479    -0.01000
Br832      Br  0.92685119  0.05304019  0.09241641    -0.01000
C833        C  0.52715257  0.41166358  0.20966276    -0.02100
C834        C  0.99810556  0.42620021  0.20387210     0.07600
C835        C  0.97076944  0.41097159  0.17056443    -0.02200
C836        C  0.97486134  0.38515318  0.14248934    -0.02200
C837        C  0.00186397  0.36881850  0.14966259     0.07700
C838        C  0.52681460  0.38084985  0.18425601    -0.02400
Br839      Br  0.56028107  0.35468374  0.19688051    -0.01000
Br840      Br  0.57365460  0.43861564  0.24646749    -0.01000
Br841      Br  0.94465437  0.37411037  0.09287841    -0.01000
Br842      Br  0.92418348  0.42059674  0.16301684    -0.01000
C843        C  0.58764461  0.05981203  0.17172241    -0.02100
C844        C  0.57219853  0.07241858  0.20431148     0.07600
C845        C  0.58691888  0.11676767  0.20910361    -0.02200
C846        C  0.61860766  0.14706924  0.18410637    -0.02200
C847        C  0.63179173  0.13340855  0.15107557     0.07700
C848        C  0.61422471  0.08965311  0.14389806    -0.02400
Br849      Br  0.62362804  0.06985498  0.09408061    -0.01000
Br850      Br  0.57806428  0.00320030  0.16512206    -0.01000
Br851      Br  0.64408903  0.20733012  0.19557862    -0.01000
Br852      Br  0.56010413  0.13704049  0.24494526    -0.01000
C853        C  0.85519478  0.37451114  0.81152510    -0.02100
C854        C  0.86751618  0.36875934  0.84900877     0.07600
C855        C  0.90529712  0.40185492  0.86541555    -0.02200
C856        C  0.93097898  0.43929720  0.84363530    -0.02200
C857        C  0.92364117  0.44021031  0.80264195     0.07700
C858        C  0.88148380  0.41197051  0.79024426    -0.02400
Br859      Br  0.85227739  0.43464223  0.76115942    -0.01000
Br860      Br  0.80121323  0.33223264  0.78992208    -0.01000
Br861      Br  0.96070882  0.49100633  0.87445785    -0.01000
Br862      Br  0.92038662  0.39765832  0.91905031    -0.01000
C863        C  0.53112058  0.12136100  0.85194053    -0.02100
C864        C  0.00023123  0.13355486  0.84725154     0.07600
C865        C  0.97149229  0.11673894  0.81558882    -0.02200
C866        C  0.97280844  0.08703347  0.78966691    -0.02200
C867        C  0.00536389  0.07660524  0.79254829     0.07700
C868        C  0.53485596  0.09508004  0.82384166    -0.02400
Br869      Br  0.58276176  0.08681402  0.82883777    -0.01000
Br870      Br  0.56506649  0.13536457  0.89945145    -0.01000
Br871      Br  0.92680340  0.05835872  0.75350619    -0.01000
Br872      Br  0.92991224  0.13420696  0.80739603    -0.01000
C873        C  0.64742915  0.02579145  0.81193148    -0.02100
C874        C  0.63535059  0.49876954  0.84520526     0.07600
C875        C  0.59174909  0.47032230  0.85148226    -0.02200
C876        C  0.56159628  0.46729650  0.82394611    -0.02200
C877        C  0.57327238  0.49671271  0.79251446     0.07700
C878        C  0.61669014  0.02665882  0.78712640    -0.02400
Br879      Br  0.63640605  0.07305048  0.75023724    -0.01000
Br880      Br  0.70711131  0.06174008  0.80046636    -0.01000
Br881      Br  0.50518348  0.41938201  0.82839720    -0.01000
Br882      Br  0.57192993  0.43774600  0.89973001    -0.01000
C883        C  0.90858490  0.38326200  0.71323985    -0.02100
C884        C  0.92100312  0.42700320  0.70898346     0.07600
C885        C  0.90014954  0.43770768  0.67978336    -0.02200
C886        C  0.87213989  0.40721150  0.65287121    -0.02200
C887        C  0.85778648  0.36345993  0.65874591     0.07700
C888        C  0.87543420  0.35157329  0.68993755    -0.02400
Br889      Br  0.85359891  0.29187030  0.70178666    -0.01000
Br890      Br  0.93650784  0.36571442  0.75040683    -0.01000
Br891      Br  0.85735714  0.42755877  0.60605250    -0.01000
Br892      Br  0.90074612  0.49078012  0.68043327    -0.01000
C893        C  0.98161585  0.09744481  0.63982811    -0.02100
C894        C  0.99976170  0.13923222  0.65464762     0.07600
C895        C  0.52578708  0.15086485  0.68740803    -0.02200
C896        C  0.53085185  0.11970906  0.70775389    -0.02200
C897        C  0.00773384  0.07565784  0.69714309     0.07700
C898        C  0.98956241  0.06743229  0.65833577    -0.02400
Br899      Br  0.98583151  0.02397345  0.62234743    -0.01000
Br900      Br  0.94933259  0.08202970  0.59098990    -0.01000
Br901      Br  0.58098710  0.14041829  0.74003271    -0.01000
Br902      Br  0.55684104  0.20995124  0.70384257    -0.01000
C903        C  0.61265938  0.46178561  0.68265803    -0.02100
C904        C  0.63140987  0.99257288  0.65265825     0.07600
C905        C  0.61564364  0.01994625  0.64421139    -0.02200
C906        C  0.58707817  0.02232468  0.66983845    -0.02200
C907        C  0.56730512  0.99194770  0.70054396     0.07700
C908        C  0.57899032  0.45978968  0.70478546    -0.02400
Br909      Br  0.54671558  0.41086385  0.73771253    -0.01000
Br910      Br  0.63243117  0.42240114  0.69381241    -0.01000
Br911      Br  0.58399536  0.07326226  0.66506792    -0.01000
Br912      Br  0.63014425  0.05231224  0.59551055    -0.01000
C913        C  0.00371763  0.50398023  0.78581683     0.45200
H914        H  0.00911261  0.50793208  0.81718813    -0.03800
C915        C  0.49727542  0.99664682  0.71121597     0.45300
H916        H  0.49522073  0.99000181  0.68024825    -0.03800
C917        C  0.95937150  0.96644444  0.77351840    -0.17500
C918        C  0.00639399  0.54358932  0.76581090    -0.17300
C919        C  0.53832716  0.99734240  0.76753322    -0.17600
C920        C  0.95723822  0.96160114  0.73290574    -0.17600
C921        C  0.50416142  0.54037389  0.72521220    -0.17200
C922        C  0.53579124  0.49381939  0.72761662    -0.17500
O923        O  0.74520721  0.64184821  0.05215095    -0.78700
C924        C  0.75104605  0.57878342  0.94073617     0.82300
O925        O  0.85730924  0.60297269  0.05497110    -0.79800
O926        O  0.89269126  0.67437039  0.92348317    -0.81300
O927        O  0.83486279  0.75538411  0.97784749    -0.79500
O928        O  0.79147632  0.71148728  0.05882852    -0.79800
Zn929      Zn  0.77897244  0.61994262  0.02210678     1.55700
O930        O  0.82695031  0.71834520  0.92287245    -0.81200
Cd931      Cd  0.84061254  0.72086708  0.02315061     1.59700
Cd932      Cd  0.87994887  0.65867304  0.02273639     1.59600
O933        O  0.89783821  0.75540847  0.05310574    -0.81100
O934        O  0.83263258  0.66595316  0.00238161    -1.91700
Cd935      Cd  0.83408001  0.66694612  0.94304094     1.59900
O936        O  0.92118894  0.70914647  0.05673841    -0.81100
O937        O  0.78287328  0.60851266  0.92239998    -0.79800
C938        C  0.81956029  0.57625148  0.06560534     0.82800
C939        C  0.75513743  0.67892339  0.06483368     0.82400
O940        O  0.74557955  0.58108374  0.97735780    -0.78700
C941        C  0.82785499  0.74971159  0.94109157     0.83200
O942        O  0.78811693  0.58063565  0.05665489    -0.78800
C943        C  0.92524267  0.74540473  0.06392064     0.83400
C944        C  0.92193217  0.67129156  0.94156195     0.83700
O945        O  0.91954327  0.66248740  0.97798083    -0.81200
C946        C  0.83557269  0.83504564  0.87497740     0.80000
N947        N  0.80363458  0.84032011  0.88915411    -0.78300
C948        C  0.77892613  0.81550513  0.91891642     0.82400
N949        N  0.78714490  0.78608348  0.93514616    -0.78300
C950        C  0.81801471  0.77950877  0.92046670     0.82500
N951        N  0.84276063  0.80458323  0.89068058    -0.80000
O952        O  0.66827110  0.92037947  0.97432265    -0.78700
C953        C  0.57811283  0.82361021  0.06115920     0.82300
O954        O  0.75508050  0.89612629  0.05073739    -0.79800
O955        O  0.64062642  0.74431606  0.04965150    -0.81300
O956        O  0.60721773  0.78296601  0.91987122    -0.81100
O957        O  0.67718584  0.89278365  0.91904660    -0.79800
Zn958      Zn  0.66053132  0.88065796  0.01837995     1.55700
O959        O  0.57830134  0.74676698  0.97528829    -0.81200
Cd960      Cd  0.66724213  0.83306697  0.93938427     1.59700
Cd961      Cd  0.72078132  0.84035078  0.01923417     1.59600
O962        O  0.71718212  0.82321184  0.92020731    -0.81100
O963        O  0.66701913  0.83423548  0.99862456    -1.91700
Cd964      Cd  0.61972164  0.78017275  0.01974938     1.59900
O965        O  0.75537409  0.83437649  0.97498837    -0.81100
O966        O  0.58175875  0.79092376  0.05589763    -0.79800
C967        C  0.74410047  0.92265155  0.06198567     0.82800
C968        C  0.67634623  0.92298216  0.93781204     0.82400
O969        O  0.60498854  0.86032298  0.04766331    -0.78700
C970        C  0.57642698  0.75240743  0.93864735     0.83200
O971        O  0.70829074  0.91843985  0.05350849    -0.78800
C972        C  0.74891432  0.82531012  0.93865291     0.83400
C973        C  0.67773496  0.75425312  0.06124894     0.83700
O974        O  0.71018112  0.79037070  0.05425003    -0.81200
C975        C  0.66248027  0.66365742  0.12266765     0.80000
N976        N  0.65657227  0.69474513  0.10691046    -0.78300
C977        C  0.68461997  0.72237896  0.08050044     0.82400
N978        N  0.71779217  0.71817369  0.06894050    -0.78300
C979        C  0.72284818  0.68602820  0.08298709     0.82500
N980        N  0.69516666  0.65871092  0.10995220    -0.80000
C981        C  0.66654680  0.00012357  0.87337397     0.80000
N982        N  0.69646434  0.53823976  0.89017020    -0.78300
C983        C  0.72098497  0.53871981  0.92055201     0.82400
N984        N  0.71420328  0.00100806  0.93507191    -0.78300
C985        C  0.68606484  0.96314002  0.91813043     0.82500
N986        N  0.66243147  0.96288659  0.88724858    -0.80000
C987        C  0.00225685  0.83885060  0.12147425     0.80000
N988        N  0.53972142  0.84492751  0.10657828    -0.78300
C989        C  0.53939398  0.81681246  0.08011130     0.82400
N990        N  0.00195582  0.78357669  0.06804592    -0.78300
C991        C  0.96475968  0.77771594  0.08205427     0.82500
N992        N  0.96496673  0.80521816  0.10886605    -0.80000
C993        C  0.99926866  0.66431132  0.87541456     0.80000
N994        N  0.53619841  0.69806744  0.88856454    -0.78300
C995        C  0.53637394  0.72235566  0.91879109     0.82400
N996        N  0.99914872  0.71277686  0.93593294    -0.78300
C997        C  0.96159594  0.68114010  0.92138143     0.82500
N998        N  0.96179969  0.65622731  0.89169633    -0.80000
C999        C  0.83376975  0.99850778  0.12342491     0.80000
N1000       N  0.83876768  0.53648741  0.11130592    -0.78300
C1001       C  0.81108219  0.53677626  0.08492758     0.82400
N1002       N  0.77854788  0.99906350  0.07060994    -0.78300
C1003       C  0.77468827  0.96144880  0.08212196     0.82500
N1004       N  0.80273830  0.96114892  0.10803728    -0.80000
O1005       O  0.91694650  0.66840155  0.52758217    -0.78700
C1006       C  0.82092075  0.57772872  0.43994374     0.82300
O1007       O  0.89294614  0.75592907  0.45229305    -0.79800
O1008       O  0.74136601  0.63945835  0.45329032    -0.81300
O1009       O  0.78174041  0.60580368  0.58297327    -0.81100
O1010       O  0.89013927  0.67785010  0.58297150    -0.79800
Zn1011     Zn  0.87736510  0.66034095  0.48363797     1.55700
O1012       O  0.74487985  0.57709364  0.52775443    -0.81200
Cd1013     Cd  0.83046432  0.66620600  0.56294135     1.59700
Cd1014     Cd  0.83727181  0.72050828  0.48338933     1.59600
O1015       O  0.82000196  0.71546821  0.58259676    -0.81100
O1016       O  0.83119630  0.66630973  0.50366562    -1.91700
Cd1017     Cd  0.77733210  0.61856503  0.48289540     1.59900
O1018       O  0.83128747  0.75456211  0.52825859    -0.81100
O1019       O  0.78822210  0.58073400  0.44611755    -0.79800
C1020       C  0.91947616  0.74508335  0.44114504     0.82800
C1021       C  0.92004410  0.67730388  0.56397082     0.82400
O1022       O  0.85741574  0.60497558  0.45333043    -0.78700
C1023       C  0.75105803  0.57498550  0.56428837     0.83200
O1024       O  0.91515980  0.70890497  0.44928489    -0.78800
C1025       C  0.82212288  0.74752823  0.56448822     0.83400
C1026       C  0.75127895  0.67681165  0.44158952     0.83700
O1027       O  0.78723192  0.70951440  0.44852793    -0.81200
C1028       C  0.82706626  0.83128164  0.63040779     0.80000
N1029       N  0.83465413  0.80103926  0.61510534    -0.78300
C1030       C  0.81131093  0.77669094  0.58433558     0.82400
N1031       N  0.78175298  0.78410276  0.56762212    -0.78300
C1032       C  0.77290107  0.81318704  0.58313495     0.82500
N1033       N  0.79536937  0.83643763  0.61477781    -0.80000
O1034       O  0.63992507  0.74515421  0.44790403    -0.78700
C1035       C  0.57486888  0.75156156  0.55808843     0.82300
O1036       O  0.59992498  0.85690381  0.44574316    -0.79800
O1037       O  0.67352884  0.88998151  0.57527051    -0.81300
O1038       O  0.75215983  0.83344219  0.52521511    -0.81100
O1039       O  0.70959929  0.79156279  0.44337319    -0.79800
Zn1040     Zn  0.61684784  0.77812483  0.47718830     1.55700
O1041       O  0.71188346  0.82133681  0.57822692    -0.81200
Cd1042     Cd  0.71919307  0.84075535  0.47886967     1.59700
Cd1043     Cd  0.65715607  0.87924895  0.47556557     1.59600
O1044       O  0.75429333  0.89847783  0.44868846    -0.81100
O1045       O  0.66343084  0.83149553  0.49680777    -1.91700
Cd1046     Cd  0.66369661  0.83132017  0.55585296     1.59900
O1047       O  0.70681396  0.91943892  0.43998084    -0.81100
O1048       O  0.60501552  0.78316397  0.57618929    -0.79800
C1049       C  0.57279210  0.81896872  0.43503263     0.82800
C1050       C  0.67718289  0.75526192  0.43651441     0.82400
O1051       O  0.57706066  0.74487036  0.52168731    -0.78700
C1052       C  0.74426267  0.82375679  0.56141999     0.83200
O1053       O  0.57747874  0.78720289  0.44262001    -0.78800
C1054       C  0.74366649  0.92467143  0.43509146     0.83400
C1055       C  0.67236605  0.92044787  0.55751343     0.83700
O1056       O  0.66410871  0.91941107  0.52105407    -0.81200
C1057       C  0.66506176  0.49384342  0.62689513     0.80000
N1058       N  0.69795239  0.53226361  0.61463472    -0.78300
C1059       C  0.72213746  0.53411580  0.58369407     0.82400
N1060       N  0.71337699  0.49735615  0.56526974    -0.78300
C1061       C  0.68232331  0.95910315  0.57908161     0.82500
N1062       N  0.65746157  0.95738630  0.60915464    -0.80000
C1063       C  0.99908950  0.67215734  0.62852490     0.80000
N1064       N  0.53622842  0.70028652  0.61067941    -0.78300
C1065       C  0.53552398  0.72275207  0.57913240     0.82400
N1066       N  0.99737409  0.71579262  0.56447146    -0.78300
C1067       C  0.96052143  0.68864275  0.58313009     0.82500
N1068       N  0.96148072  0.66681209  0.61514075    -0.80000
C1069       C  0.99414646  0.83358965  0.37775747     0.80000
N1070       N  0.95737942  0.80332699  0.39431967    -0.78300
C1071       C  0.95801645  0.77587112  0.42095966     0.82400
N1072       N  0.99550965  0.77958700  0.43197585    -0.78300
C1073       C  0.53281616  0.81063893  0.41708424     0.82500
N1074       N  0.53206043  0.83750006  0.38984636    -0.80000
C1075       C  0.66213348  0.66232513  0.37907732     0.80000
N1076       N  0.69239369  0.65569924  0.39536550    -0.78300
C1077       C  0.71971280  0.68377938  0.42212627     0.82400
N1078       N  0.71585037  0.71746017  0.43346860    -0.78300
C1079       C  0.68451649  0.72304845  0.41869697     0.82500
N1080       N  0.65777454  0.69561828  0.39136293    -0.80000
C1081       C  0.83687657  0.00385024  0.37823283     0.80000
N1082       N  0.84285103  0.54007750  0.39390934    -0.78300
C1083       C  0.81450377  0.53917232  0.42013819     0.82400
N1084       N  0.78132859  0.00189437  0.43178310    -0.78300
C1085       C  0.77585862  0.96476937  0.41715035     0.82500
N1086       N  0.80358252  0.96575990  0.39029226    -0.80000
C1087       C  0.99818452  0.99987446  0.21245472     0.45200
H1088       H  0.99827958  0.99984888  0.17993939    -0.03800
C1089       C  0.99790640  0.99981578  0.28810467     0.45300
H1090       H  0.99786615  0.99970105  0.32062542    -0.03800
C1091       C  0.53771760  0.53865196  0.23022944    -0.17500
C1092       C  0.95928652  0.00045532  0.22984300    -0.17300
C1093       C  0.99739487  0.96004680  0.23007789    -0.17600
C1094       C  0.53718311  0.53890212  0.27080419    -0.17600
C1095       C  0.95886129  0.00000896  0.27039652    -0.17200
C1096       C  0.99758951  0.96021412  0.27058259    -0.17500
C1097       C  0.88164987  0.53000613  0.31696995    -0.02100
C1098       C  0.86804251  0.00411677  0.35046121     0.07600
C1099       C  0.88369620  0.97636489  0.35721573    -0.02200
C1100       C  0.90950579  0.97236049  0.32928276    -0.02200
C1101       C  0.92555507  0.00048388  0.29652358     0.07700
C1102       C  0.91237280  0.53029950  0.29166698    -0.02400
Br1103     Br  0.94034517  0.57759681  0.25555632    -0.01000
Br1104     Br  0.85821269  0.56625315  0.30555050    -0.01000
Br1105     Br  0.91779987  0.92458449  0.33610656    -0.01000
Br1106     Br  0.87243567  0.94557621  0.40655162    -0.01000
C1107       C  0.64473095  0.61813536  0.31798352    -0.02100
C1108       C  0.63137216  0.63132715  0.35109580     0.07600
C1109       C  0.58804249  0.61469607  0.35790338    -0.02200
C1110       C  0.55829851  0.58815427  0.32995926    -0.02200
C1111       C  0.57061194  0.57248503  0.29728580     0.07700
C1112       C  0.61452294  0.58673442  0.29267074    -0.02400
Br1113     Br  0.63438443  0.55928208  0.25706890    -0.01000
Br1114     Br  0.70451700  0.64356430  0.30674756    -0.01000
Br1115     Br  0.50211902  0.57835364  0.33699333    -0.01000
Br1116     Br  0.56866848  0.62596034  0.40711321    -0.01000
C1117       C  0.96703850  0.85147270  0.31706403    -0.02100
C1118       C  0.99391324  0.86471532  0.35018677     0.07600
C1119       C  0.52150583  0.90792223  0.35751752    -0.02200
C1120       C  0.52549598  0.93802670  0.32964846    -0.02200
C1121       C  0.99691577  0.92629213  0.29681640     0.07700
C1122       C  0.96657139  0.88213732  0.29183691    -0.02400
Br1123     Br  0.91980754  0.86266088  0.25536379    -0.01000
Br1124     Br  0.93109615  0.79129000  0.30580826    -0.01000
Br1125     Br  0.57344572  0.99421835  0.33619865    -0.01000
Br1126     Br  0.55156538  0.92722107  0.40719195    -0.01000
C1127       C  0.85176526  0.97237204  0.18438041    -0.02100
C1128       C  0.86490567  0.99844631  0.15074330     0.07600
C1129       C  0.90871457  0.52471458  0.14316356    -0.02200
C1130       C  0.93880483  0.52804997  0.17063773    -0.02200
C1131       C  0.92599259  0.00041477  0.20351335     0.07700
C1132       C  0.88204565  0.97082851  0.20893498    -0.02400
Br1133     Br  0.86200774  0.92305223  0.24453907    -0.01000
Br1134     Br  0.79224824  0.93925820  0.19745691    -0.01000
Br1135     Br  0.99542169  0.57455176  0.16286509    -0.01000
Br1136     Br  0.92737044  0.55391940  0.09308294    -0.01000
C1137       C  0.52777539  0.91187783  0.20955198    -0.02100
C1138       C  0.99748068  0.92640074  0.20394192     0.07600
C1139       C  0.96993948  0.91091933  0.17079594    -0.02200
C1140       C  0.97403239  0.88511312  0.14268862    -0.02200
C1141       C  0.00144436  0.86919223  0.14961773     0.07700
C1142       C  0.52728213  0.88094620  0.18420371    -0.02400
Br1143     Br  0.56062755  0.85465153  0.19684883    -0.01000
Br1144     Br  0.57444483  0.93892754  0.24615842    -0.01000
Br1145     Br  0.94320308  0.87352313  0.09338396    -0.01000
Br1146     Br  0.92314704  0.92028934  0.16355579    -0.01000
C1147       C  0.58717706  0.55940315  0.17161733    -0.02100
C1148       C  0.57158828  0.57212785  0.20401361     0.07600
C1149       C  0.58621094  0.61648117  0.20854825    -0.02200
C1150       C  0.61791340  0.64668670  0.18349436    -0.02200
C1151       C  0.63124291  0.63290440  0.15064150     0.07700
C1152       C  0.61381413  0.58911804  0.14372726    -0.02400
Br1153     Br  0.62347659  0.56907825  0.09416247    -0.01000
Br1154     Br  0.57767517  0.50279367  0.16537110    -0.01000
Br1155     Br  0.64321598  0.70699370  0.19466570    -0.01000
Br1156     Br  0.55920591  0.63684098  0.24407083    -0.01000
C1157       C  0.85462723  0.87479463  0.81169766    -0.02100
C1158       C  0.86710080  0.86832537  0.84886228     0.07600
C1159       C  0.90524332  0.90088392  0.86523555    -0.02200
C1160       C  0.93098278  0.93852549  0.84377717    -0.02200
C1161       C  0.92352897  0.93996813  0.80290543     0.07700
C1162       C  0.88123468  0.91227565  0.79055449    -0.02400
Br1163     Br  0.85272031  0.93563239  0.76137553    -0.01000
Br1164     Br  0.80014913  0.83339115  0.79030655    -0.01000
Br1165     Br  0.96056464  0.98987541  0.87510114    -0.01000
Br1166     Br  0.92078066  0.89587051  0.91849228    -0.01000
C1167       C  0.53060511  0.62072933  0.85226699    -0.02100
C1168       C  0.00054915  0.63383231  0.84697642     0.07600
C1169       C  0.97163456  0.61694793  0.81542992    -0.02200
C1170       C  0.97283558  0.58721165  0.78945954    -0.02200
C1171       C  0.00553974  0.57698657  0.79203578     0.07700
C1172       C  0.53459973  0.59455381  0.82422776    -0.02400
Br1173     Br  0.58263471  0.58650967  0.82958836    -0.01000
Br1174     Br  0.56408447  0.63458985  0.90006540    -0.01000
Br1175     Br  0.92642539  0.55804752  0.75379161    -0.01000
Br1176     Br  0.92995583  0.63431472  0.80745109    -0.01000
C1177       C  0.64796798  0.52620732  0.81245367    -0.02100
C1178       C  0.63482793  0.99852764  0.84481011     0.07600
C1179       C  0.59119242  0.97032353  0.85130153    -0.02200
C1180       C  0.56091535  0.96764773  0.82405882    -0.02200
C1181       C  0.57268203  0.99684393  0.79241673     0.07700
C1182       C  0.61721670  0.52691845  0.78755586    -0.02400
Br1183     Br  0.63678524  0.57351569  0.75099147    -0.01000
Br1184     Br  0.70766376  0.56269196  0.80133759    -0.01000
Br1185     Br  0.50396413  0.92070205  0.82935646    -0.01000
Br1186     Br  0.57155623  0.93746972  0.89940964    -0.01000
C1187       C  0.90835221  0.88300568  0.71352307    -0.02100
C1188       C  0.92096893  0.92680377  0.70923909     0.07600
C1189       C  0.90031921  0.93761631  0.67991472    -0.02200
C1190       C  0.87236959  0.90719181  0.65290325    -0.02200
C1191       C  0.85799636  0.86341294  0.65865619     0.07700
C1192       C  0.87534892  0.85140919  0.69000392    -0.02400
Br1193     Br  0.85320656  0.79165171  0.70178254    -0.01000
Br1194     Br  0.93586690  0.86525386  0.75095571    -0.01000
Br1195     Br  0.85758432  0.92766395  0.60616122    -0.01000
Br1196     Br  0.90127994  0.99086481  0.68037687    -0.01000
C1197       C  0.98098876  0.59734919  0.63933327    -0.02100
C1198       C  0.99931851  0.63922767  0.65397801     0.07600
C1199       C  0.52610429  0.65042103  0.68741062    -0.02200
C1200       C  0.53120018  0.61935586  0.70787623    -0.02200
C1201       C  0.00735302  0.57573812  0.69661362     0.07700
C1202       C  0.98893468  0.56735666  0.65789673    -0.02400
Br1203     Br  0.98484207  0.52365460  0.62201688    -0.01000
Br1204     Br  0.94844255  0.58174275  0.59063342    -0.01000
Br1205     Br  0.58103867  0.64033313  0.74063828    -0.01000
Br1206     Br  0.55646096  0.70941409  0.70416098    -0.01000
C1207       C  0.61261222  0.96222824  0.68302191    -0.02100
C1208       C  0.63188530  0.49256819  0.65266278     0.07600
C1209       C  0.61654066  0.52040168  0.64468700    -0.02200
C1210       C  0.58800591  0.52269014  0.67042658    -0.02200
C1211       C  0.56779354  0.49186740  0.70070807     0.07700
C1212       C  0.57891784  0.96020644  0.70509689    -0.02400
Br1213     Br  0.54733812  0.91170405  0.73868241    -0.01000
Br1214     Br  0.63310708  0.92355744  0.69477117    -0.01000
Br1215     Br  0.58554373  0.57399997  0.66636318    -0.01000
Br1216     Br  0.63141252  0.55349115  0.59638385    -0.01000
loop_ 
_geom_bond_atom_site_label_1 
_geom_bond_atom_site_label_2 
_geom_bond_distance 
_geom_bond_site_symmetry_2 
_ccdc_geom_bond_type 
C1            H2   1.087       .  S
C1            C6   1.544       .  S
C1          C919   1.556   1_545  S
C1          C309   1.554   1_545  S
C3            H4   1.076       .  S
C3          C313   1.566   1_655  S
C3          C616   1.559       .  S
C3          C314   1.541   1_655  S
C5          C305   1.553       .  S
C5            C8   1.393       .  D
C5          C249   1.541       .  S
C6          C617   1.403       .  D
C6          C259   1.517       .  S
C7          C913   1.556       .  S
C7          C314   1.371       .  D
C7          C269   1.519       .  S
C8          C611   1.560       .  S
C8          C276   1.518       .  S
C9          C307   1.567   1_445  S
C9          C614   1.403       .  D
C9          C897   1.543       .  S
C10         C307   1.541   1_455  S
C10         C311   1.371       .  D
C10         C299   1.517       .  S
O11          C27   1.277       .  A
O11         Zn17   2.050       .  S
C12          O28   1.275       .  A
C12          O25   1.281       .  A
C12          C71   1.475       .  S
O13          C26   1.274       .  A
O13         Cd20   2.066       .  S
O14          C32   1.282       .  A
O14         Cd23   2.126       .  S
O15          C29   1.274       .  A
O15         Cd19   2.060   1_556  S
O16          C27   1.271       .  A
O16         Cd19   2.052       .  S
Zn17         O28   2.016   1_554  S
Zn17         O30   1.999       .  S
Zn17         O22   1.944       .  S
O18          C29   1.281       .  A
O18         Cd23   2.117       .  S
Cd19         O21   2.079       .  S
Cd19         O22   1.990       .  S
Cd20         O24   2.041       .  S
Cd20         O33   2.061   1_554  S
Cd20         O22   1.995       .  S
O21          C31   1.276       .  A
O22         Cd23   2.022   1_554  S
Cd23         O25   2.115       .  S
O24          C31   1.269       .  A
C26          O30   1.271       .  A
C26          C89   1.457       .  S
C27          C67   1.467       .  S
C29          C38   1.474       .  S
C31          C79   1.458       .  S
C32          O33   1.273       .  A
C32          C85   1.477       .  S
C34         C246   1.474       .  S
C34          N35   1.363       .  A
C34          N39   1.363       .  A
N35          C36   1.355       .  A
C36          C60   1.475       .  S
C36          N37   1.360       .  A
N37          C38   1.361       .  A
C38          N39   1.359       .  A
O40          C56   1.272       .  A
O40         Zn46   1.996   1_556  S
C41          O57   1.276       .  A
C41          O54   1.269       .  A
C41          C77   1.459       .  S
O42          C55   1.273       .  A
O42         Cd49   2.060       .  S
O43          C61   1.275       .  A
O43         Cd52   2.072       .  S
O44          C58   1.283       .  A
O44         Cd48   2.126       .  S
O45          C56   1.282       .  A
O45         Cd48   2.121       .  S
Zn46         O57   2.038       .  S
Zn46         O59   1.982       .  S
Zn46         O51   1.934   1_554  S
O47          C58   1.272       .  A
O47         Cd52   2.047   1_556  S
Cd48         O50   2.132       .  S
Cd48         O51   2.019       .  S
Cd49         O53   2.050   1_554  S
Cd49         O62   2.033       .  S
Cd49         O51   1.985   1_554  S
O50          C60   1.283       .  A
O51         Cd52   1.982   1_556  S
Cd52         O54   2.038       .  S
O53          C60   1.272       .  A
C55          O59   1.269       .  A
C55          C91   1.451       .  S
C56          C73   1.473       .  S
C58          C83   1.473       .  S
C61          O62   1.268       .  A
C61          C65   1.453       .  S
C63         C239   1.473       .  S
C63          N64   1.357       .  A
C63          N68   1.365       .  A
N64          C65   1.353       .  A
C65          N66   1.355       .  A
N66          C67   1.353       .  A
C67          N68   1.356       .  A
C69         C266   1.488       .  S
C69          N74   1.363       .  A
C69         N374   1.366       .  A
N70          C71   1.360       .  A
N70         C373   1.366       .  A
C71         N376   1.359       .  A
N72          C73   1.359       .  A
N72         C375   1.359       .  A
C73          N74   1.355       .  A
C75         C229   1.471       .  S
C75          N80   1.358       .  A
C75         N684   1.362       .  A
N76          C77   1.357       .  A
N76         C683   1.361       .  A
C77         N686   1.355       .  A
N78          C79   1.353       .  A
N78         C685   1.355       .  A
C79          N80   1.350       .  A
C81         C256   1.489       .  S
C81          N86   1.366       .  A
C81         N690   1.363       .  A
N82          C83   1.354       .  A
N82         C689   1.363   1_455  A
C83         N692   1.360   1_455  A
N84          C85   1.360       .  A
N84         C691   1.360       .  A
C85          N86   1.359       .  A
C87         C216   1.467       .  S
C87          N92   1.357       .  A
C87         N392   1.359       .  A
N88          C89   1.353       .  A
N88         C391   1.360   1_545  A
C89         N394   1.352   1_545  A
N90          C91   1.354       .  A
N90         C393   1.352       .  A
C91          N92   1.353       .  A
O93         C109   1.272       .  A
O93         Zn99   1.992       .  S
C94         O110   1.275       .  A
C94         O107   1.270       .  A
C94         C171   1.460       .  S
O95         C108   1.274       .  A
O95        Cd102   2.069       .  S
O96         C114   1.274       .  A
O96        Cd105   2.072       .  S
O97         C111   1.281       .  A
O97        Cd101   2.118       .  S
O98         C109   1.280       .  A
O98        Cd101   2.107       .  S
Zn99        O110   2.036       .  S
Zn99        O112   1.979       .  S
Zn99        O104   1.930       .  S
O100        C111   1.273       .  A
O100       Cd105   2.050       .  S
Cd101       O103   2.113       .  S
Cd101       O104   2.019       .  S
Cd102       O106   2.047       .  S
Cd102       O115   2.038       .  S
Cd102       O104   1.983       .  S
O103        C113   1.281       .  A
O104       Cd105   1.979       .  S
Cd105       O107   2.041       .  S
O106        C113   1.272       .  A
C108        O112   1.268       .  A
C108        C159   1.455       .  S
C109        C155   1.468       .  S
C111        C147   1.472       .  S
C113        C118   1.467       .  S
C114        O115   1.269       .  A
C114        C165   1.454       .  S
C116        C279   1.492       .  S
C116        N117   1.363       .  A
C116        N121   1.367       .  A
N117        C118   1.357       .  A
C118        N119   1.358       .  A
N119        C120   1.356       .  A
C120        C140   1.477       .  S
C120        N121   1.358       .  A
O122        C138   1.279       .  A
O122       Zn128   2.040       .  S
C123        O139   1.275       .  A
C123        O136   1.276       .  A
C123        C153   1.470       .  S
O124        C137   1.276       .  A
O124       Cd131   2.080       .  S
O125        C143   1.276       .  A
O125       Cd134   2.076       .  S
O126        C140   1.276       .  A
O126       Cd130   2.077       .  S
O127        C138   1.270       .  A
O127       Cd130   2.033       .  S
Zn128       O139   2.027       .  S
Zn128       O141   2.006       .  S
Zn128       O133   1.938       .  S
O129        C140   1.278       .  A
O129       Cd134   2.105       .  S
Cd130       O132   2.091       .  S
Cd130       O133   1.987       .  S
Cd131       O135   2.054       .  S
Cd131       O144   2.053       .  S
Cd131       O133   1.989       .  S
O132        C142   1.277       .  A
O133       Cd134   2.012       .  S
Cd134       O136   2.085       .  S
O135        C142   1.271       .  A
C137        O141   1.271       .  A
C137        C161   1.464       .  S
C138        C167   1.456       .  S
C142        C173   1.464       .  S
C143        O144   1.273       .  A
C143        C149   1.456       .  S
C145        C296   1.480       .  S
C145        N146   1.367   1_565  A
C145        N454   1.357       .  A
N146        C147   1.357       .  A
C147        N148   1.357   1_545  A
N148        C453   1.356       .  A
C149        N150   1.352       .  A
C149        N452   1.356       .  A
N150        C449   1.357       .  A
C151        C286   1.476       .  S
C151        N156   1.362       .  A
C151        N760   1.361       .  A
N152        C153   1.355       .  A
N152        C759   1.361   1_455  A
C153        N762   1.358   1_455  A
N154        C155   1.360       .  A
N154        C761   1.358       .  A
C155        N156   1.356       .  A
C157        C206   1.468       .  S
C157        N158   1.357       .  A
C157        N770   1.361       .  A
N158        C159   1.353       .  A
C159        N160   1.357       .  A
N160        C769   1.355       .  A
C161        N162   1.353       .  A
C161        N768   1.354   1_455  A
N162        C765   1.361   1_455  A
C163        C196   1.468       .  S
C163        N164   1.358       .  A
C163        N168   1.360       .  A
N164        C165   1.354       .  A
C165        N166   1.354       .  A
N166        C167   1.352       .  A
C167        N168   1.351       .  A
C169        C186   1.479       .  S
C169        N174   1.363       .  A
C169        N474   1.362       .  A
N170        C171   1.358       .  A
N170        C473   1.362       .  A
C171        N476   1.354       .  A
N172        C173   1.352       .  A
N172        C475   1.354       .  A
C173        N174   1.354       .  A
C175        H176   1.108       .  S
C175        C181   1.548       .  S
C175        C180   1.550       .  S
C175       C1091   1.548       .  S
C177        H178   1.108       .  S
C177        C183   1.548       .  S
C177        C184   1.549       .  S
C177       C1094   1.550       .  S
C179       C1087   1.548   1_445  S
C179        C182   1.383       .  D
C179        C236   1.513       .  S
C180        C183   1.382       .  D
C180        C219   1.507       .  S
C181        C184   1.380       .  D
C181        C226   1.512       .  S
C182       C1089   1.550   1_445  S
C182        C199   1.510       .  S
C183        C189   1.516       .  S
C184        C209   1.508       .  S
C185        C190   1.413       .  A
C185        C490   1.411       .  A
C185       Br192   1.932       .  S
C186        C187   1.402       .  A
C186        C489   1.411       .  A
C187        C188   1.400       .  A
C187       Br194   1.943       .  S
C188        C189   1.423       .  A
C188       Br193   1.914       .  S
C189        C494   1.425       .  A
C190        C493   1.424       .  A
C190       Br191   1.930       .  S
C195        C196   1.408       .  A
C195        C200   1.409       .  A
C195       Br202   1.932       .  S
C196        C197   1.399       .  A
C197        C198   1.397       .  A
C197       Br204   1.945       .  S
C198        C199   1.424       .  A
C198       Br203   1.912       .  S
C199        C200   1.424       .  A
C200       Br201   1.930       .  S
C205        C206   1.408       .  A
C205        C210   1.409       .  A
C205       Br212   1.932       .  S
C206        C815   1.399       .  A
C207        C208   1.396       .  A
C207        C814   1.399   1_455  A
C207       Br214   1.943       .  S
C208        C817   1.422   1_455  A
C208       Br213   1.913       .  S
C209        C210   1.423       .  A
C209        C816   1.422       .  A
C210       Br211   1.930       .  S
C215        C216   1.407       .  A
C215        C220   1.406       .  A
C215       Br222   1.932       .  S
C216        C521   1.400       .  A
C217        C218   1.398       .  A
C217        C520   1.400   1_545  A
C217       Br224   1.942       .  S
C218        C523   1.423       .  A
C218       Br223   1.915       .  S
C219        C220   1.422       .  A
C219        C522   1.423       .  A
C220       Br221   1.929       .  S
C225        C230   1.409       .  A
C225        C834   1.425   1_455  A
C225       Br232   1.929       .  S
C226        C227   1.423       .  A
C226        C833   1.425       .  A
C227        C228   1.399       .  A
C227       Br234   1.916       .  S
C228        C229   1.403       .  A
C228       Br233   1.943       .  S
C229        C838   1.407       .  A
C230        C837   1.407       .  A
C230       Br231   1.932       .  S
C235        C236   1.424       .  A
C235        C240   1.398       .  A
C235       Br242   1.911       .  S
C236        C237   1.423       .  A
C237        C238   1.411       .  A
C237       Br244   1.931       .  S
C238        C239   1.411       .  A
C238       Br243   1.932       .  S
C239        C240   1.399       .  A
C240       Br241   1.943       .  S
C245        C246   1.402       .  A
C245        C250   1.406       .  A
C245       Br252   1.928       .  S
C246        C247   1.407       .  A
C247        C248   1.409       .  A
C247       Br254   1.935       .  S
C248        C249   1.424       .  A
C248       Br253   1.933       .  S
C249        C250   1.414       .  A
C250       Br251   1.913       .  S
C255        C260   1.406       .  A
C255        C864   1.411       .  A
C255       Br262   1.941       .  S
C256        C257   1.409       .  A
C256        C863   1.412       .  A
C257        C258   1.412       .  A
C257       Br264   1.935       .  S
C258        C259   1.418       .  A
C258       Br263   1.909       .  S
C259        C868   1.421       .  A
C260        C867   1.422       .  A
C260       Br261   1.924       .  S
C265        C270   1.415       .  A
C265        C570   1.408   1_545  A
C265       Br272   1.933       .  S
C266        C267   1.410       .  A
C266        C569   1.408       .  A
C267        C268   1.405       .  A
C267       Br274   1.939       .  S
C268        C269   1.416       .  A
C268       Br273   1.917       .  S
C269        C574   1.425       .  A
C270        C573   1.425   1_545  A
C270       Br271   1.922       .  S
C275        C276   1.418       .  A
C275        C280   1.417       .  A
C275       Br282   1.919       .  S
C276        C277   1.417       .  A
C277        C278   1.402       .  A
C277       Br284   1.910       .  S
C278        C279   1.410       .  A
C278       Br283   1.941       .  S
C279        C280   1.415       .  A
C280       Br281   1.932       .  S
C285        C286   1.405       .  A
C285        C290   1.405       .  A
C285       Br292   1.948       .  S
C286        C895   1.404       .  A
C287        C288   1.412       .  A
C287        C894   1.404   1_455  A
C287       Br294   1.931       .  S
C288        C897   1.426       .  A
C288       Br293   1.930       .  S
C289        C617   1.543       .  S
C289        C290   1.440       .  A
C289        C896   1.425       .  A
C290       Br291   1.947       .  S
C295        C300   1.414       .  A
C295        C600   1.410       .  A
C295       Br302   1.932       .  S
C296        C297   1.403   1_565  A
C296        C599   1.411       .  A
C297        C298   1.399       .  A
C297       Br304   1.945       .  S
C298        C299   1.423   1_545  A
C298       Br303   1.910       .  S
C299        C604   1.419       .  A
C300        C603   1.419       .  A
C300       Br301   1.919       .  S
C305        H306   1.080       .  S
C305        C615   1.556       .  S
C305        C310   1.544       .  S
C307        H308   1.074       .  S
C307        C920   1.560       .  S
C309        C312   1.392       .  D
C309        C553   1.541       .  S
C310        C921   1.403       .  D
C310        C563   1.519       .  S
C311        C609   1.556   1_565  S
C311        C573   1.518       .  S
C312        C915   1.557       .  S
C312        C580   1.515       .  S
C313        C918   1.403       .  D
C313       C1201   1.544       .  S
C314        C603   1.517       .  S
O315        C331   1.277       .  A
O315       Zn321   2.049       .  S
C316        O332   1.275       .  A
C316        O329   1.281       .  A
C316        C375   1.476       .  S
O317        C330   1.274       .  A
O317       Cd324   2.066       .  S
O318        C336   1.282       .  A
O318       Cd327   2.126       .  S
O319        C333   1.273       .  A
O319       Cd323   2.058   1_556  S
O320        C331   1.271       .  A
O320       Cd323   2.052       .  S
Zn321       O332   2.017   1_554  S
Zn321       O334   1.997       .  S
Zn321       O326   1.944       .  S
O322        C333   1.281       .  A
O322       Cd327   2.116       .  S
Cd323       O325   2.078       .  S
Cd323       O326   1.990       .  S
Cd324       O328   2.042       .  S
Cd324       O337   2.062   1_554  S
Cd324       O326   1.994       .  S
O325        C335   1.276       .  A
O326       Cd327   2.022   1_554  S
Cd327       O329   2.116       .  S
O328        C335   1.269       .  A
C330        O334   1.271       .  A
C330        C393   1.457       .  S
C331        C371   1.466       .  S
C333        C342   1.472       .  S
C335        C383   1.458       .  S
C336        O337   1.273       .  A
C336        C389   1.477       .  S
C338        C550   1.472       .  S
C338        N339   1.363       .  A
C338        N343   1.363       .  A
N339        C340   1.355       .  A
C340        C364   1.475       .  S
C340        N341   1.359       .  A
N341        C342   1.361       .  A
C342        N343   1.359       .  A
O344        C360   1.272       .  A
O344       Zn350   1.995   1_556  S
C345        O361   1.276       .  A
C345        O358   1.269       .  A
C345        C381   1.460       .  S
O346        C359   1.273       .  A
O346       Cd353   2.060       .  S
O347        C365   1.275       .  A
O347       Cd356   2.073       .  S
O348        C362   1.283       .  A
O348       Cd352   2.126       .  S
O349        C360   1.282       .  A
O349       Cd352   2.120       .  S
Zn350       O361   2.039       .  S
Zn350       O363   1.984       .  S
Zn350       O355   1.934   1_554  S
O351        C362   1.272       .  A
O351       Cd356   2.049   1_556  S
Cd352       O354   2.132       .  S
Cd352       O355   2.020       .  S
Cd353       O357   2.049   1_554  S
Cd353       O366   2.031       .  S
Cd353       O355   1.985   1_554  S
O354        C364   1.283       .  A
O355       Cd356   1.982   1_556  S
Cd356       O358   2.039       .  S
O357        C364   1.272       .  A
C359        O363   1.269       .  A
C359        C395   1.452       .  S
C360        C377   1.472       .  S
C362        C387   1.474       .  S
C365        O366   1.268       .  A
C365        C369   1.453       .  S
C367        C543   1.473       .  S
C367        N368   1.357       .  A
C367        N372   1.365       .  A
N368        C369   1.353       .  A
C369        N370   1.354       .  A
N370        C371   1.353       .  A
C371        N372   1.356       .  A
C373        C570   1.488   1_545  S
C373        N378   1.363   1_545  A
N374        C375   1.360       .  A
N376        C377   1.359   1_545  A
C377        N378   1.355       .  A
C379        C533   1.471       .  S
C379        N988   1.362       .  A
C379        N384   1.359       .  A
N380        C987   1.362       .  A
N380        C381   1.357       .  A
C381        N990   1.355       .  A
N382        C989   1.355       .  A
N382        C383   1.353       .  A
C383        N384   1.350       .  A
C385        C560   1.489       .  S
C385        N994   1.363       .  A
C385        N390   1.366       .  A
N386        C993   1.363   1_455  A
N386        C387   1.354       .  A
C387        N996   1.360   1_455  A
N388        C995   1.360       .  A
N388        C389   1.360       .  A
C389        N390   1.360       .  A
C391        C520   1.468       .  S
C391        N396   1.357       .  A
N392        C393   1.353       .  A
N394        C395   1.354       .  A
C395        N396   1.353       .  A
O397        C413   1.272       .  A
O397       Zn403   1.993       .  S
C398        O414   1.275       .  A
C398        O411   1.270       .  A
C398        C475   1.459       .  S
O399        C412   1.274       .  A
O399       Cd406   2.067       .  S
O400        C418   1.274       .  A
O400       Cd409   2.071       .  S
O401        C415   1.281       .  A
O401       Cd405   2.118       .  S
O402        C413   1.280       .  A
O402       Cd405   2.110       .  S
Zn403       O414   2.035       .  S
Zn403       O416   1.979       .  S
Zn403       O408   1.929       .  S
O404        C415   1.273       .  A
O404       Cd409   2.048       .  S
Cd405       O407   2.114       .  S
Cd405       O408   2.019       .  S
Cd406       O410   2.044       .  S
Cd406       O419   2.038       .  S
Cd406       O408   1.983       .  S
O407        C417   1.281       .  A
O408       Cd409   1.978       .  S
Cd409       O411   2.039       .  S
O410        C417   1.271       .  A
C412        O416   1.268       .  A
C412        C463   1.454       .  S
C413        C459   1.469       .  S
C415        C451   1.471       .  S
C417        C422   1.466       .  S
C418        O419   1.269       .  A
C418        C469   1.454       .  S
C420        C583   1.491       .  S
C420        N421   1.362       .  A
C420        N425   1.367       .  A
N421        C422   1.356       .  A
C422        N423   1.359       .  A
N423        C424   1.357       .  A
C424        C444   1.477       .  S
C424        N425   1.358       .  A
O426        C442   1.279       .  A
O426       Zn432   2.040       .  S
C427        O443   1.275       .  A
C427        O440   1.276       .  A
C427        C457   1.469       .  S
O428        C441   1.276       .  A
O428       Cd435   2.082       .  S
O429        C447   1.276       .  A
O429       Cd438   2.077       .  S
O430        C444   1.276       .  A
O430       Cd434   2.077       .  S
O431        C442   1.270       .  A
O431       Cd434   2.032       .  S
Zn432       O443   2.026       .  S
Zn432       O445   2.007       .  S
Zn432       O437   1.938       .  S
O433        C444   1.278       .  A
O433       Cd438   2.106       .  S
Cd434       O436   2.089       .  S
Cd434       O437   1.987       .  S
Cd435       O439   2.056       .  S
Cd435       O448   2.054       .  S
Cd435       O437   1.989       .  S
O436        C446   1.277       .  A
O437       Cd438   2.012       .  S
Cd438       O440   2.085       .  S
O439        C446   1.272       .  A
C441        O445   1.271       .  A
C441        C465   1.465       .  S
C442        C471   1.456       .  S
C446        C477   1.464       .  S
C447        O448   1.274       .  A
C447        C453   1.456       .  S
C449        C600   1.479       .  S
C449        N450   1.366       .  A
N450        C451   1.357       .  A
C451        N452   1.357       .  A
C453        N454   1.352       .  A
C455        C590   1.476       .  S
C455       N1064   1.361       .  A
C455        N460   1.363       .  A
N456       C1063   1.361   1_455  A
N456        C457   1.355       .  A
C457       N1066   1.358   1_455  A
N458       C1065   1.358       .  A
N458        C459   1.361       .  A
C459        N460   1.356       .  A
C461        C510   1.468       .  S
C461        N462   1.356       .  A
C461       N1074   1.361       .  A
N462        C463   1.353       .  A
C463        N464   1.357       .  A
N464       C1073   1.355       .  A
C465       N1072   1.355   1_455  A
C465        N466   1.354       .  A
N466       C1069   1.361   1_455  A
C467        C500   1.467       .  S
C467        N468   1.358       .  A
C467        N472   1.360       .  A
N468        C469   1.354       .  A
C469        N470   1.354       .  A
N470        C471   1.353       .  A
C471        N472   1.351       .  A
C473        C490   1.480       .  S
C473        N478   1.364   1_545  A
N474        C475   1.357       .  A
N476        C477   1.352   1_545  A
C477        N478   1.354       .  A
C479        H480   1.108       .  S
C479        C485   1.548       .  S
C479        C484   1.550   1_565  S
C479        C787   1.548   1_565  S
C481        H482   1.108       .  S
C481        C487   1.548       .  S
C481        C790   1.550   1_565  S
C481        C488   1.548       .  S
C483        C783   1.548   1_455  S
C483        C486   1.383       .  D
C483        C540   1.512       .  S
C484        C487   1.382   1_545  D
C484        C523   1.507       .  S
C485        C488   1.380       .  D
C485        C530   1.512       .  S
C486        C785   1.550   1_455  S
C486        C503   1.510       .  S
C487        C493   1.517   1_565  S
C488        C513   1.507       .  S
C489        C494   1.413       .  A
C489       Br496   1.932       .  S
C490        C491   1.402   1_545  A
C491        C492   1.401       .  A
C491       Br498   1.942       .  S
C492        C493   1.423   1_565  A
C492       Br497   1.914       .  S
C494       Br495   1.931       .  S
C499        C500   1.407       .  A
C499        C504   1.409       .  A
C499       Br506   1.933       .  S
C500        C501   1.399       .  A
C501        C502   1.397       .  A
C501       Br508   1.945       .  S
C502        C503   1.424       .  A
C502       Br507   1.912       .  S
C503        C504   1.424       .  A
C504       Br505   1.930       .  S
C509        C510   1.409       .  A
C509        C514   1.409       .  A
C509       Br516   1.932       .  S
C510       C1119   1.399       .  A
C511       C1118   1.399   1_455  A
C511        C512   1.396       .  A
C511       Br518   1.942       .  S
C512       C1121   1.422   1_455  A
C512       Br517   1.913       .  S
C513       C1120   1.422       .  A
C513        C514   1.423       .  A
C514       Br515   1.930       .  S
C519        C520   1.407       .  A
C519        C524   1.407       .  A
C519       Br526   1.932       .  S
C521        C522   1.398       .  A
C521       Br528   1.942       .  S
C522       Br527   1.915       .  S
C523        C524   1.422   1_545  A
C524       Br525   1.929       .  S
C529       C1138   1.425   1_455  A
C529        C534   1.409       .  A
C529       Br536   1.929       .  S
C530       C1137   1.425       .  A
C530        C531   1.423       .  A
C531        C532   1.400       .  A
C531       Br538   1.916       .  S
C532        C533   1.402       .  A
C532       Br537   1.943       .  S
C533       C1142   1.407       .  A
C534       C1141   1.407       .  A
C534       Br535   1.932       .  S
C539        C540   1.423       .  A
C539        C544   1.398       .  A
C539       Br546   1.911       .  S
C540        C541   1.423       .  A
C541        C542   1.411       .  A
C541       Br548   1.931       .  S
C542        C543   1.411       .  A
C542       Br547   1.932       .  S
C543        C544   1.399       .  A
C544       Br545   1.943       .  S
C549        C550   1.401       .  A
C549        C554   1.404       .  A
C549       Br556   1.928       .  S
C550        C551   1.407       .  A
C551        C552   1.410       .  A
C551       Br558   1.933       .  S
C552        C553   1.424       .  A
C552       Br557   1.933       .  S
C553        C554   1.414       .  A
C554       Br555   1.914       .  S
C559       C1168   1.411       .  A
C559        C564   1.406       .  A
C559       Br566   1.940       .  S
C560       C1167   1.411       .  A
C560        C561   1.409       .  A
C561        C562   1.413       .  A
C561       Br568   1.935       .  S
C562        C563   1.419       .  A
C562       Br567   1.909       .  S
C563       C1172   1.422       .  A
C564       C1171   1.422       .  A
C564       Br565   1.924       .  S
C569        C574   1.415       .  A
C569       Br576   1.933       .  S
C570        C571   1.410       .  A
C571        C572   1.405       .  A
C571       Br578   1.939       .  S
C572        C573   1.416       .  A
C572       Br577   1.916       .  S
C574       Br575   1.923       .  S
C579        C580   1.417       .  A
C579        C584   1.416       .  A
C579       Br586   1.920       .  S
C580        C581   1.416       .  A
C581        C582   1.401       .  A
C581       Br588   1.912       .  S
C582        C583   1.410       .  A
C582       Br587   1.941       .  S
C583        C584   1.415       .  A
C584       Br585   1.932       .  S
C589        C590   1.405       .  A
C589        C594   1.406       .  A
C589       Br596   1.948       .  S
C590       C1199   1.404       .  A
C591       C1198   1.404   1_455  A
C591        C592   1.412       .  A
C591       Br598   1.931       .  S
C592       C1201   1.425       .  A
C592       Br597   1.930       .  S
C593        C921   1.544       .  S
C593       C1200   1.426       .  A
C593        C594   1.440       .  A
C594       Br595   1.947       .  S
C599        C604   1.415       .  A
C599       Br606   1.931       .  S
C600        C601   1.403       .  A
C601        C602   1.399       .  A
C601       Br608   1.945       .  S
C602        C603   1.423       .  A
C602       Br607   1.910       .  S
C604       Br605   1.919       .  S
C609        H610   1.082       .  S
C609        C614   1.544       .  S
C609        C917   1.553   1_445  S
C611        H612   1.069       .  S
C611        C921   1.567       .  S
C611        C922   1.541       .  S
C613        C913   1.554   1_655  S
C613        C616   1.393       .  D
C613        C857   1.542       .  S
C614        C867   1.519       .  S
C615        C922   1.371       .  D
C615        C877   1.518       .  S
C616        C884   1.517       .  S
C617        C915   1.566   1_545  S
C618        C915   1.540       .  S
C618        C919   1.371       .  D
C618        C907   1.517       .  S
O619        C635   1.277       .  A
O619       Zn625   2.049       .  S
C620        O636   1.275       .  A
C620        O633   1.281       .  A
C620        C679   1.476       .  S
O621        C634   1.274       .  A
O621       Cd628   2.066       .  S
O622        C640   1.282       .  A
O622       Cd631   2.127       .  S
O623        C637   1.274       .  A
O623       Cd627   2.059   1_556  S
O624        C635   1.271       .  A
O624       Cd627   2.052       .  S
Zn625       O636   2.017   1_554  S
Zn625       O638   1.998       .  S
Zn625       O630   1.944       .  S
O626        C637   1.281       .  A
O626       Cd631   2.117       .  S
Cd627       O629   2.079       .  S
Cd627       O630   1.990       .  S
Cd628       O632   2.042       .  S
Cd628       O641   2.061   1_554  S
Cd628       O630   1.995       .  S
O629        C639   1.276       .  A
O630       Cd631   2.023   1_554  S
Cd631       O633   2.117       .  S
O632        C639   1.269       .  A
C634        O638   1.271       .  A
C634        C697   1.457       .  S
C635        C675   1.466       .  S
C637        C646   1.473       .  S
C639        C687   1.458       .  S
C640        O641   1.273       .  A
C640        C693   1.477       .  S
C642        C854   1.474       .  S
C642        N643   1.363       .  A
C642        N647   1.364       .  A
N643        C644   1.355       .  A
C644        C668   1.476       .  S
C644        N645   1.359       .  A
N645        C646   1.361       .  A
C646        N647   1.359       .  A
O648        C664   1.272       .  A
O648       Zn654   1.995   1_556  S
C649        O665   1.276       .  A
C649        O662   1.269       .  A
C649        C685   1.460       .  S
O650        C663   1.273       .  A
O650       Cd657   2.061       .  S
O651        C669   1.274       .  A
O651       Cd660   2.072       .  S
O652        C666   1.283       .  A
O652       Cd656   2.124       .  S
O653        C664   1.281       .  A
O653       Cd656   2.118       .  S
Zn654       O665   2.039       .  S
Zn654       O667   1.983       .  S
Zn654       O659   1.934   1_554  S
O655        C666   1.272       .  A
O655       Cd660   2.048   1_556  S
Cd656       O658   2.131       .  S
Cd656       O659   2.020       .  S
Cd657       O661   2.052   1_554  S
Cd657       O670   2.033       .  S
Cd657       O659   1.985   1_554  S
O658        C668   1.283       .  A
O659       Cd660   1.982   1_556  S
Cd660       O662   2.037       .  S
O661        C668   1.272       .  A
C663        O667   1.269       .  A
C663        C699   1.452       .  S
C664        C681   1.471       .  S
C666        C691   1.473       .  S
C669        O670   1.268       .  A
C669        C673   1.453       .  S
C671        C847   1.474       .  S
C671        N672   1.357       .  A
C671        N676   1.365       .  A
N672        C673   1.353       .  A
C673        N674   1.354       .  A
N674        C675   1.353       .  A
C675        N676   1.356       .  A
C677        C874   1.487       .  S
C677        N982   1.366       .  A
C677        N682   1.363       .  A
N678        C981   1.366       .  A
N678        C679   1.360       .  A
C679        N984   1.359       .  A
N680        C983   1.359       .  A
N680        C681   1.359       .  A
C681        N682   1.355       .  A
C683        C837   1.471       .  S
C683        N688   1.359   1_455  A
N684        C685   1.357       .  A
N686        C687   1.353   1_455  A
C687        N688   1.350       .  A
C689        C864   1.488   1_655  S
C689        N694   1.366       .  A
N690        C691   1.354       .  A
N692        C693   1.360       .  A
C693        N694   1.359       .  A
C695        C824   1.467       .  S
C695       N1000   1.360       .  A
C695        N700   1.357       .  A
N696        C999   1.360   1_545  A
N696        C697   1.353       .  A
C697       N1002   1.353   1_545  A
N698       C1001   1.353       .  A
N698        C699   1.354       .  A
C699        N700   1.353       .  A
O701        C717   1.272       .  A
O701       Zn707   1.992       .  S
C702        O718   1.275       .  A
C702        O715   1.270       .  A
C702        C779   1.459       .  S
O703        C716   1.274       .  A
O703       Cd710   2.069       .  S
O704        C722   1.274       .  A
O704       Cd713   2.070       .  S
O705        C719   1.281       .  A
O705       Cd709   2.120       .  S
O706        C717   1.280       .  A
O706       Cd709   2.111       .  S
Zn707       O718   2.034       .  S
Zn707       O720   1.980       .  S
Zn707       O712   1.929       .  S
O708        C719   1.273       .  A
O708       Cd713   2.049       .  S
Cd709       O711   2.113       .  S
Cd709       O712   2.020       .  S
Cd710       O714   2.044       .  S
Cd710       O723   2.038       .  S
Cd710       O712   1.983       .  S
O711        C721   1.281       .  A
O712       Cd713   1.978       .  S
Cd713       O715   2.038       .  S
O714        C721   1.271       .  A
C716        O720   1.268       .  A
C716        C767   1.455       .  S
C717        C763   1.469       .  S
C719        C755   1.472       .  S
C721        C726   1.466       .  S
C722        O723   1.269       .  A
C722        C773   1.453       .  S
C724        C887   1.491       .  S
C724        N725   1.362       .  A
C724        N729   1.367       .  A
N725        C726   1.356       .  A
C726        N727   1.359       .  A
N727        C728   1.356       .  A
C728        C748   1.477       .  S
C728        N729   1.358       .  A
O730        C746   1.279       .  A
O730       Zn736   2.041       .  S
C731        O747   1.275       .  A
C731        O744   1.276       .  A
C731        C761   1.469       .  S
O732        C745   1.276       .  A
O732       Cd739   2.081       .  S
O733        C751   1.276       .  A
O733       Cd742   2.077       .  S
O734        C748   1.276       .  A
O734       Cd738   2.078       .  S
O735        C746   1.270       .  A
O735       Cd738   2.032       .  S
Zn736       O747   2.028       .  S
Zn736       O749   2.008       .  S
Zn736       O741   1.938       .  S
O737        C748   1.278       .  A
O737       Cd742   2.105       .  S
Cd738       O740   2.090       .  S
Cd738       O741   1.987       .  S
Cd739       O743   2.055       .  S
Cd739       O752   2.054       .  S
Cd739       O741   1.989       .  S
O740        C750   1.277       .  A
O741       Cd742   2.012       .  S
Cd742       O744   2.084       .  S
O743        C750   1.272       .  A
C745        O749   1.271       .  A
C745        C769   1.465       .  S
C746        C775   1.456       .  S
C750        C781   1.464       .  S
C751        O752   1.273       .  A
C751        C757   1.456       .  S
C753        C904   1.479       .  S
C753        N754   1.367   1_565  A
C753       N1062   1.357       .  A
N754        C755   1.357       .  A
C755        N756   1.357   1_545  A
N756       C1061   1.356       .  A
C757       N1060   1.356       .  A
C757        N758   1.352       .  A
N758       C1057   1.357       .  A
C759        C894   1.476       .  S
C759        N764   1.363       .  A
N760        C761   1.355       .  A
N762        C763   1.361       .  A
C763        N764   1.356       .  A
C765        C814   1.468       .  S
C765        N766   1.357       .  A
N766        C767   1.354       .  A
C767        N768   1.356       .  A
C769        N770   1.354       .  A
C771        C804   1.466       .  S
C771        N772   1.358       .  A
C771        N776   1.360       .  A
N772        C773   1.354       .  A
C773        N774   1.354       .  A
N774        C775   1.353       .  A
C775        N776   1.351       .  A
C777        C794   1.480       .  S
C777       N1082   1.362       .  A
C777        N782   1.363       .  A
N778       C1081   1.362       .  A
N778        C779   1.358       .  A
C779       N1084   1.354       .  A
N780       C1083   1.354       .  A
N780        C781   1.352       .  A
C781        N782   1.354       .  A
C783        H784   1.108       .  S
C783        C789   1.548       .  S
C783        C788   1.550       .  S
C785        H786   1.108       .  S
C785        C791   1.548       .  S
C785        C792   1.549       .  S
C787        C790   1.383       .  D
C787        C844   1.513       .  S
C788        C791   1.382       .  D
C788        C827   1.507       .  S
C789        C792   1.381       .  D
C789        C834   1.512       .  S
C790        C807   1.510       .  S
C791        C797   1.517       .  S
C792        C817   1.508       .  S
C793       C1098   1.411       .  A
C793        C798   1.413       .  A
C793       Br800   1.932       .  S
C794       C1097   1.411       .  A
C794        C795   1.403       .  A
C795        C796   1.401       .  A
C795       Br802   1.942       .  S
C796        C797   1.423       .  A
C796       Br801   1.914       .  S
C797       C1102   1.425       .  A
C798       C1101   1.425       .  A
C798       Br799   1.931       .  S
C803        C804   1.407       .  A
C803        C808   1.409       .  A
C803       Br810   1.932       .  S
C804        C805   1.399       .  A
C805        C806   1.396       .  A
C805       Br812   1.945       .  S
C806        C807   1.424       .  A
C806       Br811   1.912       .  S
C807        C808   1.424       .  A
C808       Br809   1.930       .  S
C813        C814   1.408       .  A
C813        C818   1.410       .  A
C813       Br820   1.932       .  S
C815        C816   1.396       .  A
C815       Br822   1.942       .  S
C816       Br821   1.914       .  S
C817        C818   1.423       .  A
C818       Br819   1.930       .  S
C823        C824   1.407       .  A
C823        C828   1.406       .  A
C823       Br830   1.932       .  S
C824       C1129   1.400       .  A
C825       C1128   1.400   1_545  A
C825        C826   1.398       .  A
C825       Br832   1.942       .  S
C826       C1131   1.423       .  A
C826       Br831   1.916       .  S
C827       C1130   1.423       .  A
C827        C828   1.422       .  A
C828       Br829   1.929       .  S
C833        C838   1.409       .  A
C833       Br840   1.929       .  S
C834        C835   1.423       .  A
C835        C836   1.399       .  A
C835       Br842   1.916       .  S
C836        C837   1.402   1_655  A
C836       Br841   1.943       .  S
C838       Br839   1.932       .  S
C843        C844   1.424       .  A
C843        C848   1.398       .  A
C843       Br850   1.911       .  S
C844        C845   1.423       .  A
C845        C846   1.411       .  A
C845       Br852   1.931       .  S
C846        C847   1.411       .  A
C846       Br851   1.932       .  S
C847        C848   1.399       .  A
C848       Br849   1.942       .  S
C853        C854   1.402       .  A
C853        C858   1.406       .  A
C853       Br860   1.928       .  S
C854        C855   1.407       .  A
C855        C856   1.410       .  A
C855       Br862   1.934       .  S
C856        C857   1.425       .  A
C856       Br861   1.933       .  S
C857        C858   1.415       .  A
C858       Br859   1.913       .  S
C863        C868   1.406       .  A
C863       Br870   1.941       .  S
C864        C865   1.409   1_455  A
C865        C866   1.413       .  A
C865       Br872   1.935       .  S
C866        C867   1.419   1_655  A
C866       Br871   1.909       .  S
C868       Br869   1.923       .  S
C873       C1178   1.408   1_545  A
C873        C878   1.414       .  A
C873       Br880   1.933       .  S
C874       C1177   1.408       .  A
C874        C875   1.410       .  A
C875        C876   1.405       .  A
C875       Br882   1.939       .  S
C876        C877   1.416       .  A
C876       Br881   1.916       .  S
C877       C1182   1.425       .  A
C878       C1181   1.425   1_545  A
C878       Br879   1.923       .  S
C883        C884   1.418       .  A
C883        C888   1.417       .  A
C883       Br890   1.919       .  S
C884        C885   1.417       .  A
C885        C886   1.401       .  A
C885       Br892   1.911       .  S
C886        C887   1.409       .  A
C886       Br891   1.941       .  S
C887        C888   1.415       .  A
C888       Br889   1.932       .  S
C893        C894   1.405       .  A
C893        C898   1.406       .  A
C893       Br900   1.948       .  S
C895        C896   1.412       .  A
C895       Br902   1.931       .  S
C896       Br901   1.929       .  S
C897        C898   1.440   1_455  A
C898       Br899   1.947       .  S
C903       C1208   1.411       .  A
C903        C908   1.415       .  A
C903       Br910   1.931       .  S
C904       C1207   1.410       .  A
C904        C905   1.403   1_565  A
C905        C906   1.398       .  A
C905       Br912   1.945       .  S
C906        C907   1.424   1_545  A
C906       Br911   1.910       .  S
C907       C1212   1.419       .  A
C908       C1211   1.419       .  A
C908       Br909   1.919       .  S
C913        H914   1.083       .  S
C913        C918   1.545       .  S
C915        H916   1.077       .  S
C917        C920   1.392       .  D
C917       C1161   1.541       .  S
C918       C1171   1.518       .  S
C919       C1181   1.518       .  S
C920       C1188   1.518       .  S
C922       C1211   1.517       .  S
O923        C939   1.277       .  A
O923       Zn929   2.048       .  S
C924        O940   1.274       .  A
C924        O937   1.281       .  A
C924        C983   1.475       .  S
O925        C938   1.274       .  A
O925       Cd932   2.067       .  S
O926        C944   1.282       .  A
O926       Cd935   2.127       .  S
O927        C941   1.274       .  A
O927       Cd931   2.060   1_556  S
O928        C939   1.271       .  A
O928       Cd931   2.052       .  S
Zn929       O940   2.014   1_554  S
Zn929       O942   1.998       .  S
Zn929       O934   1.944       .  S
O930        C941   1.281       .  A
O930       Cd935   2.117       .  S
Cd931       O933   2.079       .  S
Cd931       O934   1.990       .  S
Cd932       O936   2.042       .  S
Cd932       O945   2.062   1_554  S
Cd932       O934   1.995       .  S
O933        C943   1.276       .  A
O934       Cd935   2.023   1_554  S
Cd935       O937   2.115       .  S
O936        C943   1.269       .  A
C938        O942   1.271       .  A
C938       C1001   1.457       .  S
C939        C979   1.466       .  S
C941        C950   1.474       .  S
C943        C991   1.458       .  S
C944        O945   1.273       .  A
C944        C997   1.477       .  S
C946       C1158   1.474       .  S
C946        N947   1.363       .  A
C946        N951   1.364       .  A
N947        C948   1.355       .  A
C948        C972   1.476       .  S
C948        N949   1.360       .  A
N949        C950   1.361       .  A
C950        N951   1.359       .  A
O952        C968   1.272       .  A
O952       Zn958   1.997   1_556  S
C953        O969   1.276       .  A
C953        O966   1.269       .  A
C953        C989   1.460       .  S
O954        C967   1.273       .  A
O954       Cd961   2.061       .  S
O955        C973   1.274       .  A
O955       Cd964   2.071       .  S
O956        C970   1.283       .  A
O956       Cd960   2.125       .  S
O957        C968   1.282       .  A
O957       Cd960   2.119       .  S
Zn958       O969   2.039       .  S
Zn958       O971   1.982       .  S
Zn958       O963   1.935   1_554  S
O959        C970   1.272       .  A
O959       Cd964   2.047   1_556  S
Cd960       O962   2.131       .  S
Cd960       O963   2.020       .  S
Cd961       O965   2.051   1_554  S
Cd961       O974   2.034       .  S
Cd961       O963   1.985   1_554  S
O962        C972   1.283       .  A
O963       Cd964   1.982   1_556  S
Cd964       O966   2.037       .  S
O965        C972   1.272       .  A
C967        O971   1.269       .  A
C967       C1003   1.452       .  S
C968        C985   1.472       .  S
C970        C995   1.473       .  S
C973        O974   1.268       .  A
C973        C977   1.453       .  S
C975       C1151   1.474       .  S
C975        N976   1.357       .  A
C975        N980   1.365       .  A
N976        C977   1.353       .  A
C977        N978   1.354       .  A
N978        C979   1.353       .  A
C979        N980   1.356       .  A
C981       C1178   1.488   1_545  S
C981        N986   1.363   1_545  A
N982        C983   1.360       .  A
N984        C985   1.359   1_545  A
C985        N986   1.355       .  A
C987       C1141   1.472       .  S
C987        N992   1.359   1_455  A
N988        C989   1.357       .  A
N990        C991   1.353   1_455  A
C991        N992   1.350       .  A
C993       C1168   1.489   1_655  S
C993        N998   1.366       .  A
N994        C995   1.354       .  A
N996        C997   1.360       .  A
C997        N998   1.360       .  A
C999       C1128   1.467       .  S
C999       N1004   1.357       .  A
N1000      C1001   1.353       .  A
N1002      C1003   1.354       .  A
C1003      N1004   1.353       .  A
O1005      C1021   1.272       .  A
O1005     Zn1011   1.993       .  S
C1006      O1022   1.276       .  A
C1006      O1019   1.270       .  A
C1006      C1083   1.460       .  S
O1007      C1020   1.274       .  A
O1007     Cd1014   2.069       .  S
O1008      C1026   1.275       .  A
O1008     Cd1017   2.073       .  S
O1009      C1023   1.281       .  A
O1009     Cd1013   2.120       .  S
O1010      C1021   1.280       .  A
O1010     Cd1013   2.109       .  S
Zn1011     O1022   2.036       .  S
Zn1011     O1024   1.981       .  S
Zn1011     O1016   1.931       .  S
O1012      C1023   1.273       .  A
O1012     Cd1017   2.051       .  S
Cd1013     O1015   2.114       .  S
Cd1013     O1016   2.020       .  S
Cd1014     O1018   2.047       .  S
Cd1014     O1027   2.038       .  S
Cd1014     O1016   1.983       .  S
O1015      C1025   1.281       .  A
O1016     Cd1017   1.980       .  S
Cd1017     O1019   2.041       .  S
O1018      C1025   1.272       .  A
C1020      O1024   1.268       .  A
C1020      C1071   1.455       .  S
C1021      C1067   1.469       .  S
C1023      C1059   1.472       .  S
C1025      C1030   1.468       .  S
C1026      O1027   1.269       .  A
C1026      C1077   1.455       .  S
C1028      C1191   1.492       .  S
C1028      N1029   1.363       .  A
C1028      N1033   1.367       .  A
N1029      C1030   1.357       .  A
C1030      N1031   1.358       .  A
N1031      C1032   1.356       .  A
C1032      C1052   1.477       .  S
C1032      N1033   1.358       .  A
O1034      C1050   1.279       .  A
O1034     Zn1040   2.039       .  S
C1035      O1051   1.275       .  A
C1035      O1048   1.276       .  A
C1035      C1065   1.469       .  S
O1036      C1049   1.276       .  A
O1036     Cd1043   2.081       .  S
O1037      C1055   1.276       .  A
O1037     Cd1046   2.077       .  S
O1038      C1052   1.276       .  A
O1038     Cd1042   2.077       .  S
O1039      C1050   1.270       .  A
O1039     Cd1042   2.034       .  S
Zn1040     O1051   2.026       .  S
Zn1040     O1053   2.005       .  S
Zn1040     O1045   1.938       .  S
O1041      C1052   1.278       .  A
O1041     Cd1046   2.105       .  S
Cd1042     O1044   2.090       .  S
Cd1042     O1045   1.987       .  S
Cd1043     O1047   2.055       .  S
Cd1043     O1056   2.054       .  S
Cd1043     O1045   1.989       .  S
O1044      C1054   1.277       .  A
O1045     Cd1046   2.012       .  S
Cd1046     O1048   2.085       .  S
O1047      C1054   1.272       .  A
C1049      O1053   1.271       .  A
C1049      C1073   1.464       .  S
C1050      C1079   1.456       .  S
C1054      C1085   1.464       .  S
C1055      O1056   1.273       .  A
C1055      C1061   1.456       .  S
C1057      C1208   1.480       .  S
C1057      N1058   1.367       .  A
N1058      C1059   1.358       .  A
C1059      N1060   1.357       .  A
C1061      N1062   1.352       .  A
C1063      C1198   1.476       .  S
C1063      N1068   1.362       .  A
N1064      C1065   1.355       .  A
N1066      C1067   1.360       .  A
C1067      N1068   1.356       .  A
C1069      C1118   1.469       .  S
C1069      N1070   1.357       .  A
N1070      C1071   1.353       .  A
C1071      N1072   1.357       .  A
C1073      N1074   1.353       .  A
C1075      C1108   1.468       .  S
C1075      N1076   1.359       .  A
C1075      N1080   1.360       .  A
N1076      C1077   1.354       .  A
C1077      N1078   1.354       .  A
N1078      C1079   1.353       .  A
C1079      N1080   1.351       .  A
C1081      C1098   1.479       .  S
C1081      N1086   1.364   1_545  A
N1082      C1083   1.358       .  A
N1084      C1085   1.352   1_545  A
C1085      N1086   1.354       .  A
C1087      H1088   1.108       .  S
C1087      C1093   1.548       .  S
C1087      C1092   1.550   1_565  S
C1089      H1090   1.108       .  S
C1089      C1095   1.548   1_565  S
C1089      C1096   1.549       .  S
C1091      C1094   1.383       .  D
C1091      C1148   1.513       .  S
C1092      C1095   1.382       .  D
C1092      C1131   1.507       .  S
C1093      C1096   1.380       .  D
C1093      C1138   1.512       .  S
C1094      C1111   1.510       .  S
C1095      C1101   1.517       .  S
C1096      C1121   1.508       .  S
C1097      C1102   1.413       .  A
C1097     Br1104   1.932       .  S
C1098      C1099   1.402   1_545  A
C1099      C1100   1.400       .  A
C1099     Br1106   1.943       .  S
C1100      C1101   1.423   1_565  A
C1100     Br1105   1.914       .  S
C1102     Br1103   1.931       .  S
C1107      C1108   1.408       .  A
C1107      C1112   1.409       .  A
C1107     Br1114   1.932       .  S
C1108      C1109   1.400       .  A
C1109      C1110   1.397       .  A
C1109     Br1116   1.945       .  S
C1110      C1111   1.424       .  A
C1110     Br1115   1.912       .  S
C1111      C1112   1.424       .  A
C1112     Br1113   1.930       .  S
C1117      C1118   1.409       .  A
C1117      C1122   1.409       .  A
C1117     Br1124   1.932       .  S
C1119      C1120   1.396       .  A
C1119     Br1126   1.943       .  S
C1120     Br1125   1.913       .  S
C1121      C1122   1.423       .  A
C1122     Br1123   1.930       .  S
C1127      C1128   1.407       .  A
C1127      C1132   1.406       .  A
C1127     Br1134   1.932       .  S
C1129      C1130   1.398       .  A
C1129     Br1136   1.942       .  S
C1130     Br1135   1.915       .  S
C1131      C1132   1.422   1_545  A
C1132     Br1133   1.929       .  S
C1137      C1142   1.409       .  A
C1137     Br1144   1.929       .  S
C1138      C1139   1.423       .  A
C1139      C1140   1.400       .  A
C1139     Br1146   1.916       .  S
C1140      C1141   1.403   1_655  A
C1140     Br1145   1.943       .  S
C1142     Br1143   1.932       .  S
C1147      C1148   1.424       .  A
C1147      C1152   1.398       .  A
C1147     Br1154   1.911       .  S
C1148      C1149   1.423       .  A
C1149      C1150   1.411       .  A
C1149     Br1156   1.931       .  S
C1150      C1151   1.411       .  A
C1150     Br1155   1.932       .  S
C1151      C1152   1.399       .  A
C1152     Br1153   1.942       .  S
C1157      C1158   1.403       .  A
C1157      C1162   1.406       .  A
C1157     Br1164   1.928       .  S
C1158      C1159   1.407       .  A
C1159      C1160   1.409       .  A
C1159     Br1166   1.934       .  S
C1160      C1161   1.424       .  A
C1160     Br1165   1.933       .  S
C1161      C1162   1.414       .  A
C1162     Br1163   1.913       .  S
C1167      C1172   1.406       .  A
C1167     Br1174   1.941       .  S
C1168      C1169   1.409   1_455  A
C1169      C1170   1.413       .  A
C1169     Br1176   1.934       .  S
C1170      C1171   1.419   1_655  A
C1170     Br1175   1.909       .  S
C1172     Br1173   1.924       .  S
C1177      C1182   1.414       .  A
C1177     Br1184   1.933       .  S
C1178      C1179   1.411       .  A
C1179      C1180   1.405       .  A
C1179     Br1186   1.939       .  S
C1180      C1181   1.416       .  A
C1180     Br1185   1.919       .  S
C1182     Br1183   1.922       .  S
C1187      C1188   1.418       .  A
C1187      C1192   1.417       .  A
C1187     Br1194   1.919       .  S
C1188      C1189   1.417       .  A
C1189      C1190   1.402       .  A
C1189     Br1196   1.911       .  S
C1190      C1191   1.410       .  A
C1190     Br1195   1.941       .  S
C1191      C1192   1.414       .  A
C1192     Br1193   1.932       .  S
C1197      C1198   1.405       .  A
C1197      C1202   1.406       .  A
C1197     Br1204   1.948       .  S
C1199      C1200   1.411       .  A
C1199     Br1206   1.931       .  S
C1200     Br1205   1.930       .  S
C1201      C1202   1.440   1_455  A
C1202     Br1203   1.947       .  S
C1207      C1212   1.414       .  A
C1207     Br1214   1.931       .  S
C1208      C1209   1.403       .  A
C1209      C1210   1.399       .  A
C1209     Br1216   1.945       .  S
C1210      C1211   1.423       .  A
C1210     Br1215   1.909       .  S
C1212     Br1213   1.919       .  S
