geometry optimzed in LAMMPS
_audit_creation_date              2020-11-30 
_audit_creation_method            'lammps2cif' 
_symmetry_space_group_name_H-M    'P1' 
_symmetry_Int_Tables_number       1 
_symmetry_cell_setting            triclinic 
loop_ 
_symmetry_equiv_pos_as_xyz 
  x,y,z 
_cell_length_a                    27.11338377 
_cell_length_b                    33.37926520491305 
_cell_length_c                    30.735437701429866 
_cell_angle_alpha                 89.99956195068954 
_cell_angle_beta                  89.99967651228151 
_cell_angle_gamma                 91.74484543278295 
loop_ 
_atom_site_label 
_atom_site_type_symbol 
_atom_site_fract_x 
_atom_site_fract_y 
_atom_site_fract_z 
_atom_site_charge 
O1          O  0.27693078  0.26361184  0.48785069    -0.85700
O2          O  0.30810793  0.34184325  0.48707684    -0.82700
C3          C  0.31588383  0.37667985  0.47253594     0.97800
O4          O  0.29128864  0.38903395  0.44034283    -0.82800
O5          O  0.31131298  0.34288212  0.36509847    -0.85400
C6          C  0.30972913  0.31140181  0.34181043     1.02300
O7          O  0.27435423  0.28648588  0.34621838    -0.78200
O8          O  0.29811446  0.24682097  0.42167162    -0.78400
C9          C  0.30230424  0.24281277  0.46236017     1.02300
O10         O  0.17662845  0.28662685  0.48652940    -0.85700
O11         O  0.20852358  0.36577191  0.48901410    -0.82700
C12         C  0.18056188  0.38362464  0.46312301     0.97800
O13         O  0.18722052  0.38138218  0.42239646    -0.82800
O14         O  0.20741325  0.34190168  0.34463535    -0.85400
C15         C  0.17661029  0.31276403  0.34133975     1.02300
O16         O  0.17398068  0.28631216  0.37056898    -0.78200
O17         O  0.19575233  0.23929075  0.44107529    -0.78300
C18         C  0.17048544  0.25132369  0.47246219     1.02200
Cr19       Cr  0.24258184  0.31457402  0.48280865     1.93700
Cr20       Cr  0.24896268  0.36046561  0.39559112     1.93200
Cr21       Cr  0.23602194  0.26862297  0.39705442     1.39100
O22         O  0.24304553  0.31465797  0.42529193    -1.23400
C23         C  0.10127001  0.15460677  0.49483253     0.02800
C24         C  0.11255290  0.19209352  0.47556706    -0.13300
C25         C  0.14215038  0.22072517  0.49717158     0.00300
C26         C  0.15913290  0.21226254  0.03871587    -0.11900
C27         C  0.15465768  0.17324182  0.05636410     0.02800
C28         C  0.12402770  0.14465023  0.03490889    -0.11300
H29         H  0.09994368  0.19858530  0.44293198     0.08400
H30         H  0.18269790  0.23484349  0.05430814     0.05900
H31         H  0.11917681  0.11484119  0.04845760     0.05800
C32         C  0.39063327  0.15704262  0.48281083     0.02800
C33         C  0.36681081  0.18810591  0.46039498    -0.13300
C34         C  0.33256915  0.21162183  0.48272149     0.00300
C35         C  0.32362178  0.20402709  0.02696096    -0.11900
C36         C  0.34396055  0.17199944  0.04837305     0.02800
C37         C  0.37695164  0.14812879  0.02635759    -0.11300
H38         H  0.37527342  0.19420421  0.42656173     0.08400
H39         H  0.29733899  0.22151036  0.04483702     0.05900
H40         H  0.39218702  0.12288210  0.04335345     0.05800
O41         O  0.02694166  0.01362699  0.48787361    -0.85700
O42         O  0.05806499  0.09186948  0.48707215    -0.82700
C43         C  0.06581921  0.12670907  0.47253328     0.97800
O44         O  0.04121299  0.13905573  0.44034296    -0.82800
O45         O  0.06127479  0.09288866  0.36512310    -0.85400
C46         C  0.05971217  0.06140119  0.34184760     1.02300
O47         O  0.02433510  0.03648678  0.34623818    -0.78200
O48         O  0.04814403  0.49684880  0.42169802    -0.78400
C49         C  0.05234859  0.99284841  0.46238768     1.02300
O50         O  0.42661689  0.03661605  0.48653774    -0.85700
O51         O  0.45846776  0.11576352  0.48900697    -0.82700
C52         C  0.43048982  0.13359179  0.46310984     0.97800
O53         O  0.43715160  0.13134882  0.42238488    -0.82800
O54         O  0.45736857  0.09186927  0.34463931    -0.85400
C55         C  0.42657600  0.06272269  0.34134948     1.02300
O56         O  0.42396901  0.03626834  0.37057957    -0.78200
O57         O  0.44578147  0.48927456  0.44110464    -0.78300
C58         C  0.42049663  0.00130973  0.47247755     1.02200
Cr59       Cr  0.49255561  0.06457948  0.48281684     1.93700
Cr60       Cr  0.49890853  0.11045932  0.39559391     1.93200
Cr61       Cr  0.48602677  0.01861424  0.39707545     1.39100
O62         O  0.49301692  0.06465555  0.42530248    -1.23400
C63         C  0.35133961  0.40457487  0.49483493     0.02800
C64         C  0.37411993  0.39462012  0.03490190    -0.13300
C65         C  0.40473351  0.42322553  0.05635809     0.00300
C66         C  0.40916695  0.46225145  0.03872570    -0.11900
C67         C  0.39217107  0.47071043  0.49718698     0.02800
C68         C  0.36259240  0.44207038  0.47557923    -0.11300
H69         H  0.36929521  0.36480571  0.04844324     0.08400
H70         H  0.43271576  0.48484161  0.05432101     0.05900
H71         H  0.34997363  0.44856532  0.44294782     0.05800
C72         C  0.14072774  0.40710149  0.48283587     0.02800
C73         C  0.11688908  0.43815872  0.46041883    -0.13300
C74         C  0.08266985  0.46169318  0.48275587     0.00300
C75         C  0.07377869  0.45413082  0.02701203    -0.11900
C76         C  0.09409956  0.42209041  0.04841867     0.02800
C77         C  0.12706603  0.39820399  0.02639211    -0.11300
H78         H  0.12531324  0.44423170  0.42657313     0.08400
H79         H  0.04752288  0.47163096  0.04489978     0.05900
H80         H  0.14229004  0.37295071  0.04338506     0.05800
O81         O  0.22291915  0.21147915  0.23786477    -0.85700
O82         O  0.19176326  0.13324022  0.23710224    -0.82700
C83         C  0.18398855  0.09840338  0.22256149     0.97800
O84         O  0.20857154  0.08605347  0.19036048    -0.82800
O85         O  0.18851175  0.13221057  0.11512325    -0.85400
C86         C  0.19008999  0.16369336  0.09183692     1.02300
O87         O  0.22547161  0.18860202  0.09623145    -0.78200
O88         O  0.20171618  0.22826231  0.17168809    -0.78400
C89         C  0.19753008  0.23226971  0.21237759     1.02300
O90         O  0.32322965  0.18847377  0.23651235    -0.85700
O91         O  0.29135107  0.10933007  0.23901427    -0.82700
C92         C  0.31930720  0.09147950  0.21311746     0.97800
O93         O  0.31263003  0.09371339  0.17239203    -0.82800
O94         O  0.29240597  0.13318563  0.09463337    -0.85400
C95         C  0.32320854  0.16232185  0.09132782     1.02300
O96         O  0.32584309  0.18878002  0.12055132    -0.78200
O97         O  0.30408194  0.23580527  0.19106169    -0.78300
C98         C  0.32936149  0.22377607  0.22244077     1.02200
Cr99       Cr  0.25728011  0.16052063  0.23281431     1.93700
Cr100      Cr  0.25087549  0.11462510  0.14559979     1.93200
Cr101      Cr  0.26380783  0.20646708  0.14705552     1.39100
O102        O  0.25679838  0.16043332  0.17529753    -1.23400
C103        C  0.39855411  0.32050165  0.24479818     0.02800
C104        C  0.37578301  0.33045934  0.28487047    -0.13300
C105        C  0.34515549  0.30186405  0.30632758     0.00300
C106        C  0.34069240  0.26284331  0.28868366    -0.11900
C107        C  0.35768790  0.25437913  0.24714446     0.02800
C108        C  0.38728120  0.28301220  0.22553718    -0.11300
H109        H  0.38062857  0.36026941  0.29841785     0.08400
H110        H  0.31713137  0.24025986  0.30427639     0.05900
H111        H  0.39989862  0.27651757  0.19290528     0.05800
C112        C  0.10919502  0.31803958  0.23282261     0.02800
C113        C  0.12286989  0.32695186  0.27637005    -0.13300
C114        C  0.15585037  0.30307633  0.29839092     0.00300
C115        C  0.17617912  0.27103903  0.27698561    -0.11900
C116        C  0.16724877  0.26345102  0.23274161     0.02800
C117        C  0.13301730  0.28697371  0.21040994    -0.11300
H118        H  0.10764044  0.35220407  0.29336098     0.08400
H119        H  0.20245025  0.25354902  0.29486712     0.05900
H120        H  0.12456586  0.28088144  0.17657358     0.05800
O121        O  0.47291646  0.46147035  0.23786555    -0.85700
O122        O  0.44177078  0.38323501  0.23704307    -0.82700
C123        C  0.43401816  0.34839545  0.22250479     0.97800
O124        O  0.45864098  0.33604487  0.19032487    -0.82800
O125        O  0.43861342  0.38220712  0.11509845    -0.85400
C126        C  0.44017709  0.41369420  0.09182349     1.02300
O127        O  0.47554289  0.43861986  0.09622970    -0.78200
O128        O  0.45172938  0.47825901  0.17168836    -0.78400
C129        C  0.44752393  0.48225747  0.21237710     1.02300
O130        O  0.07322952  0.43847412  0.23655853    -0.85700
O131        O  0.04136169  0.35932461  0.23900565    -0.82700
C132        C  0.06935176  0.34150014  0.21311489     0.97800
O133        O  0.06271314  0.34375560  0.17238862    -0.82800
O134        O  0.04252382  0.38324381  0.09464120    -0.85400
C135        C  0.07331394  0.41239337  0.09136015     1.02300
O136        O  0.07591269  0.43884221  0.12059443    -0.78200
O137        O  0.05409047  0.48582087  0.19112070    -0.78300
C138        C  0.07936298  0.47378143  0.22250189     1.02200
Cr139      Cr  0.50728866  0.41051551  0.23281168     1.93700
Cr140      Cr  0.50096698  0.36464434  0.14558465     1.93200
Cr141      Cr  0.51384922  0.45649093  0.14707680     1.39100
O142        O  0.50684832  0.41044649  0.17529729    -1.23400
C143        C  0.14854506  0.07050426  0.24486580     0.02800
C144        C  0.12577753  0.08045878  0.28493660    -0.13300
C145        C  0.09516130  0.05185773  0.30639239     0.00300
C146        C  0.09071438  0.01283182  0.28875718    -0.11900
C147        C  0.10769921  0.00437294  0.24721377     0.02800
C148        C  0.13728313  0.03301116  0.22560733    -0.11300
H149        H  0.13060765  0.11027225  0.29847809     0.08400
H150        H  0.06715696  0.49024765  0.30435361     0.05900
H151        H  0.14989500  0.02651876  0.19297327     0.05800
C152        C  0.35915550  0.06801410  0.23282446     0.02800
C153        C  0.38299153  0.03695641  0.21040761    -0.13300
C154        C  0.41721843  0.01342787  0.23274176     0.00300
C155        C  0.42612674  0.02099956  0.27699291    -0.11900
C156        C  0.40579984  0.05303454  0.29840235     0.02800
C157        C  0.37282522  0.07691665  0.27637865    -0.11300
H158        H  0.37455550  0.03087545  0.17656605     0.08400
H159        H  0.45239098  0.50350205  0.29487685     0.05900
H160        H  0.35759710  0.10216671  0.29337333     0.05800
O161        O  0.27693088  0.26361209  0.98785057    -0.85700
O162        O  0.30810791  0.34184358  0.98707690    -0.82700
C163        C  0.31588398  0.37668012  0.97253590     0.97800
O164        O  0.29128900  0.38903415  0.94034263    -0.82800
O165        O  0.31131303  0.34288206  0.86509845    -0.85400
C166        C  0.30972897  0.31140179  0.84181034     1.02300
O167        O  0.27435399  0.28648598  0.84621831    -0.78200
O168        O  0.29811450  0.24682124  0.92167145    -0.78400
C169        C  0.30230425  0.24281295  0.96235997     1.02300
O170        O  0.17662842  0.28662715  0.98652942    -0.85700
O171        O  0.20852345  0.36577217  0.98901396    -0.82700
C172        C  0.18056187  0.38362492  0.96312283     0.97800
O173        O  0.18722066  0.38138249  0.92239629    -0.82800
O174        O  0.20741334  0.34190190  0.84463535    -0.85400
C175        C  0.17661023  0.31276435  0.84133990     1.02300
O176        O  0.17398052  0.28631265  0.87056930    -0.78200
O177        O  0.19575236  0.23929101  0.94107542    -0.78300
C178        C  0.17048529  0.25132401  0.97246218     1.02200
Cr179      Cr  0.24258183  0.31457429  0.98280866     1.93700
Cr180      Cr  0.24896285  0.36046576  0.89559107     1.93200
Cr181      Cr  0.23602188  0.26862323  0.89705448     1.39100
O182        O  0.24304562  0.31465820  0.92529197    -1.23400
C183        C  0.10126999  0.15460700  0.99483217     0.02800
C184        C  0.11255264  0.19209387  0.97556696    -0.13300
C185        C  0.14214995  0.22072558  0.99717151     0.00300
C186        C  0.15913339  0.21226225  0.53871596    -0.11900
C187        C  0.15465800  0.17324154  0.55636427     0.02800
C188        C  0.12402779  0.14465012  0.53490917    -0.11300
H189        H  0.09994339  0.19858574  0.94293163     0.08400
H190        H  0.18269825  0.23484309  0.55430814     0.05900
H191        H  0.11917662  0.11484082  0.54845815     0.05800
C192        C  0.39063337  0.15704289  0.98281067     0.02800
C193        C  0.36681089  0.18810612  0.96039471    -0.13300
C194        C  0.33256909  0.21162195  0.98272119     0.00300
C195        C  0.32362167  0.20402683  0.52696123    -0.11900
C196        C  0.34396046  0.17199912  0.54837325     0.02800
C197        C  0.37695161  0.14812849  0.52635778    -0.11300
H198        H  0.37527359  0.19420446  0.92656150     0.08400
H199        H  0.29733878  0.22151000  0.54483725     0.05900
H200        H  0.39218695  0.12288188  0.54335355     0.05800
O201        O  0.02694177  0.01362724  0.98787348    -0.85700
O202        O  0.05806514  0.09186968  0.98707170    -0.82700
C203        C  0.06581934  0.12670925  0.97253281     0.97800
O204        O  0.04121310  0.13905588  0.94034248    -0.82800
O205        O  0.06127471  0.09288846  0.86512291    -0.85400
C206        C  0.05971199  0.06140095  0.84184750     1.02300
O207        O  0.02433470  0.03648674  0.84623799    -0.78200
O208        O  0.04814379  0.49684887  0.92169804    -0.78400
C209        C  0.05234851  0.99284860  0.96238742     1.02300
O210        O  0.42661697  0.03661635  0.98653813    -0.85700
O211        O  0.45846786  0.11576383  0.98900695    -0.82700
C212        C  0.43048993  0.13359209  0.96310976     0.97800
O213        O  0.43715167  0.13134908  0.92238482    -0.82800
O214        O  0.45736830  0.09186924  0.84463940    -0.85400
C215        C  0.42657551  0.06272276  0.84134990     1.02300
O216        O  0.42396847  0.03626864  0.87058023    -0.78200
O217        O  0.44578161  0.48927469  0.94110472    -0.78300
C218        C  0.42049641  0.00131007  0.97247788     1.02200
Cr219      Cr  0.49255573  0.06457974  0.98281690     1.93700
Cr220      Cr  0.49890846  0.11045939  0.89559393     1.93200
Cr221      Cr  0.48602638  0.01861438  0.89707566     1.39100
O222        O  0.49301672  0.06465570  0.92530261    -1.23400
C223        C  0.35133973  0.40457515  0.99483492     0.02800
C224        C  0.37411975  0.39461980  0.53490196    -0.13300
C225        C  0.40473342  0.42322523  0.55635809     0.00300
C226        C  0.40916699  0.46225111  0.53872565    -0.11900
C227        C  0.39217111  0.47071073  0.99718701     0.02800
C228        C  0.36259249  0.44207067  0.97557923    -0.11300
H229        H  0.36929492  0.36480566  0.54844328     0.08400
H230        H  0.43271582  0.48484126  0.55432094     0.05900
H231        H  0.34997375  0.44856562  0.94294782     0.05800
C232        C  0.14072768  0.40710173  0.98283568     0.02800
C233        C  0.11688911  0.43815903  0.96041862    -0.13300
C234        C  0.08266998  0.46169352  0.98275584     0.00300
C235        C  0.07377851  0.45413055  0.52701211    -0.11900
C236        C  0.09409962  0.42209024  0.54841881     0.02800
C237        C  0.12706612  0.39820377  0.52639232    -0.11300
H238        H  0.12531317  0.44423197  0.92657323     0.08400
H239        H  0.04752277  0.47163055  0.54489970     0.05900
H240        H  0.14229004  0.37295062  0.54338519     0.05800
O241        O  0.22291919  0.21147877  0.73786532    -0.85700
O242        O  0.19176301  0.13323974  0.73710232    -0.82700
C243        C  0.18398840  0.09840290  0.72256157     0.97800
O244        O  0.20857147  0.08605302  0.69036061    -0.82800
O245        O  0.18851175  0.13221032  0.61512357    -0.85400
C246        C  0.19009014  0.16369309  0.59183722     1.02300
O247        O  0.22547173  0.18860172  0.59623186    -0.78200
O248        O  0.20171626  0.22826182  0.67168860    -0.78400
C249        C  0.19753019  0.23226933  0.71237810     1.02300
O250        O  0.32322943  0.18847327  0.73651302    -0.85700
O251        O  0.29135073  0.10932950  0.73901452    -0.82700
C252        C  0.31930686  0.09147888  0.71311775     0.97800
O253        O  0.31262982  0.09371279  0.67239231    -0.82800
O254        O  0.29240593  0.13318524  0.59463359    -0.85400
C255        C  0.32320855  0.16232146  0.59132804     1.02300
O256        O  0.32584316  0.18877960  0.62055156    -0.78200
O257        O  0.30408217  0.23580475  0.69106211    -0.78300
C258        C  0.32936156  0.22377550  0.72244129     1.02200
Cr259      Cr  0.25727992  0.16052013  0.73281467     1.93700
Cr260      Cr  0.25087543  0.11462473  0.64560004     1.93200
Cr261      Cr  0.26380794  0.20646667  0.64705593     1.39100
O262        O  0.25679843  0.16043291  0.67529787    -1.23400
C263        C  0.39855412  0.32050110  0.74479833     0.02800
C264        C  0.37578284  0.33045903  0.78487044    -0.13300
C265        C  0.34515532  0.30186382  0.80632762     0.00300
C266        C  0.34069248  0.26284294  0.78868403    -0.11900
C267        C  0.35768813  0.25437852  0.74714491     0.02800
C268        C  0.38728139  0.28301154  0.72553753    -0.11300
H269        H  0.38062822  0.36026908  0.79841758     0.08400
H270        H  0.31713138  0.24025956  0.80427689     0.05900
H271        H  0.39989887  0.27651683  0.69290561     0.05800
C272        C  0.10919516  0.31803934  0.73282260     0.02800
C273        C  0.12286994  0.32695182  0.77637007    -0.13300
C274        C  0.15585052  0.30307644  0.79839104     0.00300
C275        C  0.17617954  0.27103917  0.77698587    -0.11900
C276        C  0.16724897  0.26345081  0.73274194     0.02800
C277        C  0.13301744  0.28697336  0.71041014    -0.11300
H278        H  0.10764050  0.35220383  0.79336078     0.08400
H279        H  0.20245078  0.25354945  0.79486733     0.05900
H280        H  0.12456596  0.28088090  0.67657377     0.05800
O281        O  0.47291609  0.46146989  0.73786581    -0.85700
O282        O  0.44177048  0.38323448  0.73704311    -0.82700
C283        C  0.43401802  0.34839490  0.72250486     0.97800
O284        O  0.45864078  0.33604438  0.69032488    -0.82800
O285        O  0.43861317  0.38220678  0.61509853    -0.85400
C286        C  0.44017686  0.41369389  0.59182363     1.02300
O287        O  0.47554266  0.43861956  0.59622992    -0.78200
O288        O  0.45172913  0.47825861  0.67168862    -0.78400
C289        C  0.44752363  0.48225706  0.71237734     1.02300
O290        O  0.07322924  0.43847355  0.73655897    -0.85700
O291        O  0.04136161  0.35932409  0.73900574    -0.82700
C292        C  0.06935174  0.34149977  0.71311491     0.97800
O293        O  0.06271301  0.34375522  0.67238864    -0.82800
O294        O  0.04252389  0.38324360  0.59464132    -0.85400
C295        C  0.07331401  0.41239319  0.59136030     1.02300
O296        O  0.07591275  0.43884198  0.62059462    -0.78200
O297        O  0.05409031  0.48582034  0.69112112    -0.78300
C298        C  0.07936273  0.47378085  0.72250233     1.02200
Cr299      Cr  0.50728827  0.41051506  0.73281182     1.93700
Cr300      Cr  0.50096672  0.36464393  0.64558469     1.93200
Cr301      Cr  0.51384895  0.45649057  0.64707704     1.39100
O302        O  0.50684802  0.41044606  0.67529742    -1.23400
C303        C  0.14854493  0.07050376  0.74486586     0.02800
C304        C  0.12577735  0.08045831  0.78493657    -0.13300
C305        C  0.09516114  0.05185735  0.80639244     0.00300
C306        C  0.09071429  0.01283144  0.78875736    -0.11900
C307        C  0.10769899  0.00437245  0.74721399     0.02800
C308        C  0.13728298  0.03301061  0.72560749    -0.11300
H309        H  0.13060748  0.11027204  0.79847812     0.08400
H310        H  0.06715661  0.49024732  0.80435404     0.05900
H311        H  0.14989489  0.02651814  0.69297342     0.05800
C312        C  0.35915504  0.06801347  0.73282491     0.02800
C313        C  0.38299102  0.03695563  0.71040831    -0.13300
C314        C  0.41721780  0.01342714  0.73274265     0.00300
C315        C  0.42612607  0.02099903  0.77699377    -0.11900
C316        C  0.40579933  0.05303428  0.79840290     0.02800
C317        C  0.37282484  0.07691631  0.77637900    -0.11300
H318        H  0.37455505  0.03087451  0.67656677     0.08400
H319        H  0.45239118  0.50350226  0.79487674     0.05900
H320        H  0.35759683  0.10216659  0.79337346     0.05800
O321        O  0.27693389  0.76361127  0.48785193    -0.85700
O322        O  0.30811187  0.84184261  0.48707664    -0.82700
C323        C  0.31588725  0.87667929  0.47253579     0.97800
O324        O  0.29129165  0.88903325  0.44034292    -0.82800
O325        O  0.31131565  0.84288071  0.36509906    -0.85400
C326        C  0.30973173  0.81140022  0.34181128     1.02300
O327        O  0.27435705  0.78648408  0.34621965    -0.78200
O328        O  0.29811568  0.74681925  0.42167272    -0.78400
C329        C  0.30230593  0.74281126  0.46236120     1.02300
O330        O  0.17663191  0.78662696  0.48653165    -0.85700
O331        O  0.20852775  0.86577188  0.48901456    -0.82700
C332        C  0.18056544  0.88362402  0.46312351     0.97800
O333        O  0.18722360  0.88138117  0.42239692    -0.82800
O334        O  0.20741658  0.84190082  0.34463581    -0.85400
C335        C  0.17661308  0.81276362  0.34134037     1.02300
O336        O  0.17398290  0.78631205  0.37056989    -0.78200
O337        O  0.19575333  0.73929078  0.44107669    -0.78300
C338        C  0.17048748  0.75132402  0.47246413     1.02200
Cr339      Cr  0.24258550  0.81457367  0.48280959     1.93700
Cr340      Cr  0.24896569  0.86046459  0.39559164     1.93200
Cr341      Cr  0.23602380  0.76862208  0.39705559     1.39100
O342        O  0.24304844  0.81465712  0.42529281    -1.23400
C343        C  0.10126949  0.65460813  0.49483416     0.02800
C344        C  0.11255322  0.69209482  0.47556897    -0.13300
C345        C  0.14215146  0.72072596  0.49717351     0.00300
C346        C  0.15913395  0.71226299  0.03871799    -0.11900
C347        C  0.15465811  0.67324222  0.05636600     0.02800
C348        C  0.12402725  0.64465120  0.03491082    -0.11300
H349        H  0.09994413  0.69858692  0.44293368     0.08400
H350        H  0.18269951  0.73484358  0.05431041     0.05900
H351        H  0.11917578  0.61484213  0.04845942     0.05800
C352        C  0.39063334  0.65704012  0.48281089     0.02800
C353        C  0.36681125  0.68810371  0.46039530    -0.13300
C354        C  0.33256981  0.71161957  0.48272211     0.00300
C355        C  0.32362267  0.70402488  0.02696176    -0.11900
C356        C  0.34396111  0.67199680  0.04837341     0.02800
C357        C  0.37695199  0.64812620  0.02635771    -0.11300
H358        H  0.37527413  0.69420238  0.42656238     0.08400
H359        H  0.29734008  0.72150820  0.04483795     0.05900
H360        H  0.39218739  0.62287916  0.04335338     0.05800
O361        O  0.02693957  0.51362879  0.48787385    -0.85700
O362        O  0.05806373  0.59187119  0.48707321    -0.82700
C363        C  0.06581837  0.62671083  0.47253459     0.97800
O364        O  0.04121240  0.63905787  0.44034422    -0.82800
O365        O  0.06127382  0.59289124  0.36512386    -0.85400
C366        C  0.05971083  0.56140378  0.34184835     1.02300
O367        O  0.02433324  0.53648986  0.34623875    -0.78200
O368        O  0.04814561  0.99684608  0.42169791    -0.78400
C369        C  0.05234681  0.49285062  0.46238775     1.02300
O370        O  0.42661727  0.53661511  0.48653859    -0.85700
O371        O  0.45846901  0.61576242  0.48900666    -0.82700
C372        C  0.43048991  0.63358971  0.46310970     0.97800
O373        O  0.43715073  0.63134623  0.42238467    -0.82800
O374        O  0.45736751  0.59186666  0.34463911    -0.85400
C375        C  0.42657487  0.56272012  0.34134970     1.02300
O376        O  0.42396781  0.53626617  0.37058016    -0.78200
O377        O  0.44578240  0.98927602  0.44110373    -0.78300
C378        C  0.42049601  0.50130886  0.47247843     1.02200
Cr379      Cr  0.49255624  0.56457805  0.48281664     1.93700
Cr380      Cr  0.49890759  0.61045716  0.39559341     1.93200
Cr381      Cr  0.48602580  0.51861210  0.39707572     1.39100
O382        O  0.49301647  0.56465360  0.42530232    -1.23400
C383        C  0.35134263  0.90457468  0.49483457     0.02800
C384        C  0.37412208  0.89462056  0.03490176    -0.13300
C385        C  0.40473492  0.92322642  0.05635792     0.00300
C386        C  0.40916824  0.96225218  0.03872511    -0.11900
C387        C  0.39217289  0.97071070  0.49718618     0.02800
C388        C  0.36259498  0.94207012  0.47557855    -0.11300
H389        H  0.36929748  0.86480631  0.04844347     0.08400
H390        H  0.43271674  0.98484265  0.05432039     0.05900
H391        H  0.34997617  0.94856472  0.44294701     0.05800
C392        C  0.14073090  0.90710043  0.48283633     0.02800
C393        C  0.11689179  0.93815738  0.46041925    -0.13300
C394        C  0.08267148  0.96169102  0.48275602     0.00300
C395        C  0.07377883  0.95412742  0.02701138    -0.11900
C396        C  0.09410076  0.92208748  0.04841815     0.02800
C397        C  0.12706877  0.89820214  0.02639202    -0.11300
H398        H  0.12531645  0.94423080  0.42657384     0.08400
H399        H  0.04752198  0.97162673  0.04489873     0.05900
H400        H  0.14229345  0.87294937  0.04338498     0.05800
O401        O  0.22292228  0.71147867  0.23786532    -0.85700
O402        O  0.19176477  0.63324023  0.23710334    -0.82700
C403        C  0.18398915  0.59840345  0.22256282     0.97800
O404        O  0.20857159  0.58605300  0.19036177    -0.82800
O405        O  0.18851188  0.63221033  0.11512479    -0.85400
C406        C  0.19009085  0.66369296  0.09183824     1.02300
O407        O  0.22547358  0.68860068  0.09623205    -0.78200
O408        O  0.20171928  0.72826166  0.17168857    -0.78400
C409        C  0.19753331  0.73226922  0.21237810     1.02300
O410        O  0.32323212  0.68847232  0.23651294    -0.85700
O411        O  0.29135173  0.60932866  0.23901477    -0.82700
C412        C  0.31930699  0.59147730  0.21311787     0.97800
O413        O  0.31262970  0.59371119  0.17239248    -0.82800
O414        O  0.29240596  0.63318365  0.09463386    -0.85400
C415        C  0.32320948  0.66231924  0.09132825     1.02300
O416        O  0.32584510  0.68877727  0.12055182    -0.78200
O417        O  0.30408522  0.73580362  0.19106175    -0.78300
C418        C  0.32936438  0.72377455  0.22244116     1.02200
Cr419      Cr  0.25728209  0.66051973  0.23281498     1.93700
Cr420      Cr  0.25087556  0.61462389  0.14560069     1.93200
Cr421      Cr  0.26381039  0.70646556  0.14705592     1.39100
O422        O  0.25680003  0.66043212  0.17529824    -1.23400
C423        C  0.39855561  0.82050101  0.24479849     0.02800
C424        C  0.37578469  0.83045826  0.28487092    -0.13300
C425        C  0.34515785  0.80186261  0.30632820     0.00300
C426        C  0.34069518  0.76284186  0.28868422    -0.11900
C427        C  0.35769061  0.75437785  0.24714489     0.02800
C428        C  0.38728332  0.78301138  0.22553751    -0.11300
H429        H  0.38062976  0.86026841  0.29841830     0.08400
H430        H  0.31713438  0.74025820  0.30427708     0.05900
H431        H  0.39990055  0.77651705  0.19290556     0.05800
C432        C  0.10919716  0.81803819  0.23282322     0.02800
C433        C  0.12287193  0.82695077  0.27637072    -0.13300
C434        C  0.15585339  0.80307587  0.29839141     0.00300
C435        C  0.17618302  0.77103906  0.27698594    -0.11900
C436        C  0.16725216  0.76345060  0.23274208     0.02800
C437        C  0.13302001  0.78697267  0.21041057    -0.11300
H438        H  0.10764190  0.85220245  0.29336160     0.08400
H439        H  0.20245476  0.75354962  0.29486723     0.05900
H440        H  0.12456841  0.78088012  0.17657419     0.05800
O441        O  0.47291481  0.96147136  0.23786613    -0.85700
O442        O  0.44176987  0.88323550  0.23704277    -0.82700
C443        C  0.43401863  0.84839562  0.22250484     0.97800
O444        O  0.45864198  0.83604552  0.19032505    -0.82800
O445        O  0.43861411  0.88220843  0.11509883    -0.85400
C446        C  0.44017781  0.91369557  0.09182394     1.02300
O447        O  0.47554318  0.93862159  0.09623058    -0.78200
O448        O  0.45173000  0.97826122  0.17168874    -0.78400
C449        C  0.44752377  0.98225941  0.21237741     1.02300
O450        O  0.07323145  0.93847240  0.23655806    -0.85700
O451        O  0.04136335  0.85932273  0.23900592    -0.82700
C452        C  0.06935347  0.84149817  0.21311532     0.97800
O453        O  0.06271461  0.84375312  0.17238902    -0.82800
O454        O  0.04252535  0.88324072  0.09464101    -0.85400
C455        C  0.07331572  0.91239015  0.09135978     1.02300
O456        O  0.07591494  0.93883885  0.12059414    -0.78200
O457        O  0.05409261  0.98581861  0.19111950    -0.78300
C458        C  0.07936500  0.97377955  0.22250094     1.02200
Cr459      Cr  0.50728751  0.91051673  0.23281241     1.93700
Cr460      Cr  0.50096756  0.86464584  0.14558510     1.93200
Cr461      Cr  0.51384959  0.95649255  0.14707762     1.39100
O462        O  0.50684826  0.91044797  0.17529797    -1.23400
C463        C  0.14854502  0.57050503  0.24486727     0.02800
C464        C  0.12577738  0.58046010  0.28493785    -0.13300
C465        C  0.09515991  0.55185970  0.30639332     0.00300
C466        C  0.09071202  0.51283389  0.28875804    -0.11900
C467        C  0.10769735  0.50437446  0.24721500     0.02800
C468        C  0.13728233  0.53301207  0.22560885    -0.11300
H469        H  0.13060827  0.61027355  0.29847937     0.08400
H470        H  0.06716049  0.99024538  0.30435285     0.05900
H471        H  0.14989443  0.52651932  0.19297493     0.05800
C472        C  0.35915461  0.56801125  0.23282489     0.02800
C473        C  0.38299076  0.53695372  0.21040792    -0.13300
C474        C  0.41721791  0.51342530  0.23274188     0.00300
C475        C  0.42612603  0.52099681  0.27699312    -0.11900
C476        C  0.40579881  0.55303158  0.29840270     0.02800
C477        C  0.37282414  0.57691359  0.27637911    -0.11300
H478        H  0.37455493  0.53087300  0.17656615     0.08400
H479        H  0.45239150  0.00350479  0.29487657     0.05900
H480        H  0.35759601  0.60216362  0.29337392     0.05800
O481        O  0.27693379  0.76361152  0.98785188    -0.85700
O482        O  0.30811190  0.84184282  0.98707637    -0.82700
C483        C  0.31588720  0.87667951  0.97253549     0.97800
O484        O  0.29129171  0.88903333  0.94034248    -0.82800
O485        O  0.31131572  0.84288032  0.86509884    -0.85400
C486        C  0.30973161  0.81139980  0.84181110     1.02300
O487        O  0.27435665  0.78648391  0.84621939    -0.78200
O488        O  0.29811578  0.74681955  0.92167273    -0.78400
C489        C  0.30230605  0.74281164  0.96236121     1.02300
O490        O  0.17663179  0.78662729  0.98653138    -0.85700
O491        O  0.20852770  0.86577212  0.98901421    -0.82700
C492        C  0.18056540  0.88362416  0.96312305     0.97800
O493        O  0.18722366  0.88138127  0.92239648    -0.82800
O494        O  0.20741641  0.84190054  0.84463551    -0.85400
C495        C  0.17661293  0.81276327  0.84134028     1.02300
O496        O  0.17398281  0.78631178  0.87056991    -0.78200
O497        O  0.19575367  0.73929081  0.94107701    -0.78300
C498        C  0.17048752  0.75132424  0.97246416     1.02200
Cr499      Cr  0.24258544  0.81457394  0.98280934     1.93700
Cr500      Cr  0.24896571  0.86046453  0.89559121     1.93200
Cr501      Cr  0.23602376  0.76862205  0.89705560     1.39100
O502        O  0.24304833  0.81465721  0.92529258    -1.23400
C503        C  0.10126961  0.65460838  0.99483419     0.02800
C504        C  0.11255321  0.69209511  0.97556893    -0.13300
C505        C  0.14215137  0.72072630  0.99717357     0.00300
C506        C  0.15913401  0.71226265  0.53871796    -0.11900
C507        C  0.15465783  0.67324193  0.55636607     0.02800
C508        C  0.12402698  0.64465094  0.53491086    -0.11300
H509        H  0.09994422  0.69858712  0.94293386     0.08400
H510        H  0.18269955  0.73484314  0.55431031     0.05900
H511        H  0.11917534  0.61484191  0.54845952     0.05800
C512        C  0.39063358  0.65704056  0.98281087     0.02800
C513        C  0.36681140  0.68810411  0.96039533    -0.13300
C514        C  0.33257021  0.71162016  0.98272215     0.00300
C515        C  0.32362196  0.70402406  0.52696162    -0.11900
C516        C  0.34396056  0.67199611  0.54837334     0.02800
C517        C  0.37695170  0.64812562  0.52635772    -0.11300
H518        H  0.37527409  0.69420264  0.92656205     0.08400
H519        H  0.29733912  0.72150728  0.54483775     0.05900
H520        H  0.39218715  0.62287883  0.54335328     0.05800
O521        O  0.02693963  0.51362908  0.98787391    -0.85700
O522        O  0.05806370  0.59187145  0.98707349    -0.82700
C523        C  0.06581847  0.62671102  0.97253469     0.97800
O524        O  0.04121258  0.63905795  0.94034424    -0.82800
O525        O  0.06127395  0.59289100  0.86512414    -0.85400
C526        C  0.05971069  0.56140362  0.84184852     1.02300
O527        O  0.02433291  0.53648989  0.84623881    -0.78200
O528        O  0.04814538  0.99684633  0.92169769    -0.78400
C529        C  0.05234683  0.49285089  0.96238775     1.02300
O530        O  0.42661742  0.53661536  0.98653852    -0.85700
O531        O  0.45846910  0.61576271  0.98900657    -0.82700
C532        C  0.43049004  0.63359005  0.96310964     0.97800
O533        O  0.43715086  0.63134655  0.92238461    -0.82800
O534        O  0.45736738  0.59186676  0.84463910    -0.85400
C535        C  0.42657485  0.56272011  0.84134968     1.02300
O536        O  0.42396787  0.53626615  0.87058016    -0.78200
O537        O  0.44578219  0.98927622  0.94110414    -0.78300
C538        C  0.42049614  0.50130907  0.97247846     1.02200
Cr539      Cr  0.49255635  0.56457834  0.98281656     1.93700
Cr540      Cr  0.49890765  0.61045735  0.89559330     1.93200
Cr541      Cr  0.48602583  0.51861223  0.89707573     1.39100
O542        O  0.49301654  0.56465380  0.92530224    -1.23400
C543        C  0.35134238  0.90457498  0.99483443     0.02800
C544        C  0.37412231  0.89462030  0.53490193    -0.13300
C545        C  0.40473537  0.92322614  0.55635793     0.00300
C546        C  0.40916900  0.96225182  0.53872489    -0.11900
C547        C  0.39217226  0.97071116  0.99718638     0.02800
C548        C  0.36259449  0.94207055  0.97557857    -0.11300
H549        H  0.36929748  0.86480622  0.54844374     0.08400
H550        H  0.43271759  0.98484226  0.55431998     0.05900
H551        H  0.34997574  0.94856517  0.94294707     0.05800
C552        C  0.14073076  0.90710045  0.98283581     0.02800
C553        C  0.11689180  0.93815752  0.96041874    -0.13300
C554        C  0.08267132  0.96169102  0.98275555     0.00300
C555        C  0.07377901  0.95412765  0.52701197    -0.11900
C556        C  0.09410096  0.92208764  0.54841870     0.02800
C557        C  0.12706898  0.89820233  0.52639258    -0.11300
H558        H  0.12531661  0.94423111  0.92657354     0.08400
H559        H  0.04752235  0.97162683  0.54489914     0.05900
H560        H  0.14229382  0.87294943  0.54338566     0.05800
O561        O  0.22292202  0.71147808  0.73786564    -0.85700
O562        O  0.19176418  0.63323975  0.73710326    -0.82700
C563        C  0.18398869  0.59840291  0.72256285     0.97800
O564        O  0.20857113  0.58605247  0.69036181    -0.82800
O565        O  0.18851137  0.63220994  0.61512490    -0.85400
C566        C  0.19009034  0.66369266  0.59183850     1.02300
O567        O  0.22547302  0.68860042  0.59623246    -0.78200
O568        O  0.20171933  0.72826134  0.67168892    -0.78400
C569        C  0.19753318  0.73226872  0.71237841     1.02300
O570        O  0.32323171  0.68847153  0.73651326    -0.85700
O571        O  0.29135103  0.60932784  0.73901472    -0.82700
C572        C  0.31930644  0.59147662  0.71311783     0.97800
O573        O  0.31262921  0.59371056  0.67239243    -0.82800
O574        O  0.29240542  0.63318309  0.59463389    -0.85400
C575        C  0.32320903  0.66231862  0.59132825     1.02300
O576        O  0.32584477  0.68877666  0.62055181    -0.78200
O577        O  0.30408532  0.73580287  0.69106192    -0.78300
C578        C  0.32936428  0.72377373  0.72244141     1.02200
Cr579      Cr  0.25728161  0.66051907  0.73281509     1.93700
Cr580      Cr  0.25087508  0.61462337  0.64560072     1.93200
Cr581      Cr  0.26381021  0.70646507  0.64705614     1.39100
O582        O  0.25679969  0.66043158  0.67529834    -1.23400
C583        C  0.39855571  0.82050018  0.74479857     0.02800
C584        C  0.37578470  0.83045760  0.78487096    -0.13300
C585        C  0.34515778  0.80186195  0.80632818     0.00300
C586        C  0.34069514  0.76284116  0.78868438    -0.11900
C587        C  0.35769070  0.75437698  0.74714511     0.02800
C588        C  0.38728361  0.78301046  0.72553780    -0.11300
H589        H  0.38062961  0.86026743  0.79841811     0.08400
H590        H  0.31713421  0.74025762  0.80427726     0.05900
H591        H  0.39990106  0.77651604  0.69290565     0.05800
C592        C  0.10919712  0.81803777  0.73282322     0.02800
C593        C  0.12287194  0.82695040  0.77637067    -0.13300
C594        C  0.15585314  0.80307538  0.79839146     0.00300
C595        C  0.17618266  0.77103850  0.77698610    -0.11900
C596        C  0.16725189  0.76345001  0.73274230     0.02800
C597        C  0.13301979  0.78697209  0.71041068    -0.11300
H598        H  0.10764210  0.85220222  0.79336148     0.08400
H599        H  0.20245449  0.75354900  0.79486751     0.05900
H600        H  0.12456819  0.78087950  0.67657435     0.05800
O601        O  0.47291430  0.96147067  0.73786709    -0.85700
O602        O  0.44176962  0.88323479  0.73704301    -0.82700
C603        C  0.43401852  0.84839496  0.72250494     0.97800
O604        O  0.45864201  0.83604500  0.69032515    -0.82800
O605        O  0.43861427  0.88220807  0.61509891    -0.85400
C606        C  0.44017792  0.91369537  0.59182423     1.02300
O607        O  0.47554295  0.93862162  0.59623136    -0.78200
O608        O  0.45172950  0.97826057  0.67168972    -0.78400
C609        C  0.44752317  0.98225866  0.71237839     1.02300
O610        O  0.07323121  0.93847192  0.73655821    -0.85700
O611        O  0.04136330  0.85932222  0.73900602    -0.82700
C612        C  0.06935345  0.84149778  0.71311536     0.97800
O613        O  0.06271457  0.84375277  0.67238907    -0.82800
O614        O  0.04252556  0.88324058  0.59464129    -0.85400
C615        C  0.07331573  0.91239018  0.59136023     1.02300
O616        O  0.07591460  0.93883884  0.62059463    -0.78200
O617        O  0.05409197  0.98581832  0.69112002    -0.78300
C618        C  0.07936461  0.97377914  0.72250124     1.02200
Cr619      Cr  0.50728720  0.91051609  0.73281303     1.93700
Cr620      Cr  0.50096767  0.86464559  0.64558538     1.93200
Cr621      Cr  0.51384929  0.95649230  0.64707850     1.39100
O622        O  0.50684807  0.91044759  0.67529855    -1.23400
C623        C  0.14854473  0.57050447  0.74486740     0.02800
C624        C  0.12577712  0.58045962  0.78493790    -0.13300
C625        C  0.09515966  0.55185937  0.80639349     0.00300
C626        C  0.09071170  0.51283349  0.78875836    -0.11900
C627        C  0.10769710  0.50437389  0.74721538     0.02800
C628        C  0.13728209  0.53301143  0.72560913    -0.11300
H629        H  0.13060809  0.61027333  0.79847942     0.08400
H630        H  0.06716020  0.99024484  0.80435330     0.05900
H631        H  0.14989420  0.52651858  0.69297519     0.05800
C632        C  0.35915421  0.56801075  0.73282488     0.02800
C633        C  0.38299039  0.53695317  0.71040796    -0.13300
C634        C  0.41721771  0.51342497  0.73274201     0.00300
C635        C  0.42612614  0.52099674  0.77699315    -0.11900
C636        C  0.40579875  0.55303149  0.79840268     0.02800
C637        C  0.37282383  0.57691326  0.77637905    -0.11300
H638        H  0.37455450  0.53087226  0.67656645     0.08400
H639        H  0.45239062  0.00350426  0.79487754     0.05900
H640        H  0.35759553  0.60216334  0.79337387     0.05800
O641        O  0.77693380  0.26361168  0.48785077    -0.85700
O642        O  0.80811087  0.34184330  0.48707591    -0.82700
C643        C  0.81588575  0.37668012  0.47253534     0.97800
O644        O  0.79128997  0.38903398  0.44034251    -0.82800
O645        O  0.81131430  0.34288174  0.36509831    -0.85400
C646        C  0.80973045  0.31140135  0.34181034     1.02300
O647        O  0.77435598  0.28648504  0.34621868    -0.78200
O648        O  0.79811544  0.24681973  0.42167152    -0.78400
C649        C  0.80230592  0.24281171  0.46235999     1.02300
O650        O  0.67663150  0.28662709  0.48653073    -0.85700
O651        O  0.70852625  0.36577187  0.48901415    -0.82700
C652        C  0.68056373  0.38362390  0.46312320     0.97800
O653        O  0.68722189  0.38138123  0.42239659    -0.82800
O654        O  0.70741509  0.34190130  0.34463517    -0.85400
C655        C  0.67661210  0.31276374  0.34133954     1.02300
O656        O  0.67398215  0.28631210  0.37056900    -0.78200
O657        O  0.69575334  0.23929093  0.44107591    -0.78300
C658        C  0.67048742  0.25132412  0.47246334     1.02200
Cr659      Cr  0.74258477  0.31457398  0.48280874     1.93700
Cr660      Cr  0.74896419  0.36046515  0.39559105     1.93200
Cr661      Cr  0.73602324  0.26862248  0.39705464     1.39100
O662        O  0.74304752  0.31465754  0.42529198    -1.23400
C663        C  0.60126987  0.15460821  0.49483392     0.02800
C664        C  0.61255349  0.19209486  0.47556850    -0.13300
C665        C  0.64215182  0.22072602  0.49717288     0.00300
C666        C  0.65913499  0.21226305  0.03871684    -0.11900
C667        C  0.65465906  0.17324235  0.05636505     0.02800
C668        C  0.62402802  0.14465135  0.03491017    -0.11300
H669        H  0.59994424  0.19858692  0.44293346     0.08400
H670        H  0.68270063  0.23484350  0.05430882     0.05900
H671        H  0.61917664  0.11484212  0.04845898     0.05800
C672        C  0.89063390  0.15704041  0.48280993     0.02800
C673        C  0.86681162  0.18810393  0.46039421    -0.13300
C674        C  0.83257025  0.21162009  0.48272093     0.00300
C675        C  0.82362356  0.20402561  0.02696038    -0.11900
C676        C  0.84396196  0.17199766  0.04837227     0.02800
C677        C  0.87695250  0.14812669  0.02635653    -0.11300
H678        H  0.87527431  0.19420231  0.42656096     0.08400
H679        H  0.79734104  0.22150918  0.04483667     0.05900
H680        H  0.89218771  0.12287973  0.04335228     0.05800
O681        O  0.52694054  0.01362905  0.48787408    -0.85700
O682        O  0.55806368  0.09187146  0.48707367    -0.82700
C683        C  0.56581863  0.12671091  0.47253466     0.97800
O684        O  0.54121299  0.13905780  0.44034409    -0.82800
O685        O  0.56127479  0.09289135  0.36512379    -0.85400
C686        C  0.55971204  0.06140392  0.34184819     1.02300
O687        O  0.52433469  0.03648983  0.34623861    -0.78200
O688        O  0.54814457  0.49684673  0.42169807    -0.78400
C689        C  0.55234804  0.99285096  0.46238812     1.02300
O690        O  0.92661813  0.03661415  0.48653780    -0.85700
O691        O  0.95846891  0.11576174  0.48900600    -0.82700
C692        C  0.93049042  0.13358953  0.46310889     0.97800
O693        O  0.93715174  0.13134611  0.42238391    -0.82800
O694        O  0.95736880  0.09186626  0.34463866    -0.85400
C695        C  0.92657625  0.06271969  0.34134893     1.02300
O696        O  0.92396922  0.03626539  0.37057909    -0.78200
O697        O  0.94578100  0.48927637  0.44110415    -0.78300
C698        C  0.92049725  0.00130785  0.47247773     1.02200
Cr699      Cr  0.99255676  0.06457750  0.48281615     1.93700
Cr700      Cr  0.99890866  0.11045666  0.39559303     1.93200
Cr701      Cr  0.98602701  0.01861143  0.39707512     1.39100
O702        O  0.99301728  0.06465301  0.42530182    -1.23400
C703        C  0.85134087  0.40457564  0.49483442     0.02800
C704        C  0.87412074  0.39462130  0.03490154    -0.13300
C705        C  0.90473352  0.42322714  0.05635787     0.00300
C706        C  0.90916653  0.46225302  0.03872534    -0.11900
C707        C  0.89217104  0.47071168  0.49718649     0.02800
C708        C  0.86259305  0.44207121  0.47557867    -0.11300
H709        H  0.86929641  0.36480691  0.04844301     0.08400
H710        H  0.93271484  0.48484346  0.05432071     0.05900
H711        H  0.84997434  0.44856589  0.44294723     0.05800
C712        C  0.64072917  0.40710021  0.48283613     0.02800
C713        C  0.61689031  0.43815729  0.46041902    -0.13300
C714        C  0.58267054  0.46169135  0.48275597     0.00300
C715        C  0.57377870  0.45412859  0.02701189    -0.11900
C716        C  0.59410006  0.42208832  0.04841850     0.02800
C717        C  0.62706743  0.39820246  0.02639222    -0.11300
H718        H  0.62531468  0.44423049  0.42657370     0.08400
H719        H  0.54752256  0.47162818  0.04489927     0.05900
H720        H  0.64229182  0.37294940  0.04338514     0.05800
O721        O  0.72292245  0.21147907  0.23786443    -0.85700
O722        O  0.69176586  0.13324044  0.23710278    -0.82700
C723        C  0.68399022  0.09840369  0.22256213     0.97800
O724        O  0.70857267  0.08605341  0.19036097    -0.82800
O725        O  0.68851300  0.13221063  0.11512383    -0.85400
C726        C  0.69009179  0.16369324  0.09183726     1.02300
O727        O  0.72547433  0.18860111  0.09623106    -0.78200
O728        O  0.70171936  0.22826198  0.17168766    -0.78400
C729        C  0.69753338  0.23226956  0.21237718     1.02300
O730        O  0.82323276  0.18847334  0.23651187    -0.85700
O731        O  0.79135348  0.10932957  0.23901394    -0.82700
C732        C  0.81930867  0.09147822  0.21311693     0.97800
O733        O  0.81263098  0.09371192  0.17239158    -0.82800
O734        O  0.79240724  0.13318440  0.09463309    -0.85400
C735        C  0.82321032  0.16232030  0.09132726     1.02300
O736        O  0.82584558  0.18877851  0.12055070    -0.78200
O737        O  0.80408526  0.23580458  0.19106084    -0.78300
C738        C  0.82936455  0.22377561  0.22244024     1.02200
Cr739      Cr  0.75728298  0.16052036  0.23281410     1.93700
Cr740      Cr  0.75087672  0.11462444  0.14559982     1.93200
Cr741      Cr  0.76381072  0.20646626  0.14705497     1.39100
O742        O  0.75680083  0.16043273  0.17529731    -1.23400
C743        C  0.89855471  0.32050219  0.24479796     0.02800
C744        C  0.87578340  0.33045957  0.28487018    -0.13300
C745        C  0.84515656  0.30186386  0.30632728     0.00300
C746        C  0.84069415  0.26284304  0.28868335    -0.11900
C747        C  0.85769023  0.25437898  0.24714422     0.02800
C748        C  0.88728298  0.28301249  0.22553713    -0.11300
H749        H  0.88062822  0.36026963  0.29841746     0.08400
H750        H  0.81713337  0.24025946  0.30427597     0.05900
H751        H  0.89990072  0.27651803  0.19290504     0.05800
C752        C  0.60919654  0.31803825  0.23282235     0.02800
C753        C  0.62287119  0.32695064  0.27636989    -0.13300
C754        C  0.65585276  0.30307590  0.29839052     0.00300
C755        C  0.67618279  0.27103930  0.27698499    -0.11900
C756        C  0.66725207  0.26345091  0.23274111     0.02800
C757        C  0.63301969  0.28697287  0.21040963    -0.11300
H758        H  0.60764090  0.35220227  0.29336103     0.08400
H759        H  0.70245461  0.25354995  0.29486631     0.05900
H760        H  0.62456809  0.28088030  0.17657325     0.05800
O761        O  0.97291490  0.46147186  0.23786607    -0.85700
O762        O  0.94176941  0.38323635  0.23704266    -0.82700
C763        C  0.93401781  0.34839662  0.22250452     0.97800
O764        O  0.95864102  0.33604637  0.19032473    -0.82800
O765        O  0.93861321  0.38220899  0.11509845    -0.85400
C766        C  0.94017675  0.41369621  0.09182366     1.02300
O767        O  0.97554216  0.43862222  0.09623025    -0.78200
O768        O  0.95172928  0.47826140  0.17168879    -0.78400
C769        C  0.94752342  0.48225967  0.21237749     1.02300
O770        O  0.57323117  0.43847261  0.23655720    -0.85700
O771        O  0.54136294  0.35932297  0.23900543    -0.82700
C772        C  0.56935274  0.34149833  0.21311463     0.97800
O773        O  0.56271355  0.34375342  0.17238839    -0.82800
O774        O  0.54252438  0.38324159  0.09464103    -0.85400
C775        C  0.57331454  0.41239117  0.09135995     1.02300
O776        O  0.57591323  0.43884010  0.12059412    -0.78200
O777        O  0.55409060  0.48581931  0.19111991    -0.78300
C778        C  0.57936383  0.47378003  0.22250072     1.02200
Cr779      Cr  0.00728716  0.41051706  0.23281204     1.93700
Cr780      Cr  0.00096664  0.36464628  0.14558472     1.93200
Cr781      Cr  0.01384880  0.45649296  0.14707734     1.39100
O782        O  0.00684749  0.41044836  0.17529760    -1.23400
C783        C  0.64854596  0.07050522  0.24486661     0.02800
C784        C  0.62577827  0.08046035  0.28493718    -0.13300
C785        C  0.59516118  0.05185997  0.30639306     0.00300
C786        C  0.59071357  0.01283396  0.28875813    -0.11900
C787        C  0.60769825  0.00437460  0.24721483     0.02800
C788        C  0.63728308  0.03301217  0.22560825    -0.11300
H789        H  0.63060906  0.11027404  0.29847862     0.08400
H790        H  0.56715788  0.49024599  0.30435231     0.05900
H791        H  0.64989484  0.02651941  0.19297459     0.05800
C792        C  0.85915661  0.06801223  0.23282375     0.02800
C793        C  0.88299277  0.03695473  0.21040662    -0.13300
C794        C  0.91721947  0.01342590  0.23274068     0.00300
C795        C  0.92612717  0.02099694  0.27699209    -0.11900
C796        C  0.90580013  0.05303171  0.29840178     0.02800
C797        C  0.87282607  0.07691423  0.27637808    -0.11300
H798        H  0.87455708  0.03087423  0.17656485     0.08400
H799        H  0.95239146  0.50350532  0.29487667     0.05900
H800        H  0.85759803  0.10216434  0.29337303     0.05800
O801        O  0.77693377  0.26361177  0.98785051    -0.85700
O802        O  0.80811082  0.34184344  0.98707577    -0.82700
C803        C  0.81588576  0.37668027  0.97253518     0.97800
O804        O  0.79129012  0.38903410  0.94034225    -0.82800
O805        O  0.81131431  0.34288167  0.86509810    -0.85400
C806        C  0.80973037  0.31140123  0.84181020     1.02300
O807        O  0.77435567  0.28648514  0.84621843    -0.78200
O808        O  0.79811547  0.24682003  0.92167120    -0.78400
C809        C  0.80230609  0.24281201  0.96235968     1.02300
O810        O  0.67663138  0.28662715  0.98653043    -0.85700
O811        O  0.70852621  0.36577194  0.98901399    -0.82700
C812        C  0.68056385  0.38362415  0.96312301     0.97800
O813        O  0.68722209  0.38138155  0.92239640    -0.82800
O814        O  0.70741509  0.34190135  0.84463506    -0.85400
C815        C  0.67661192  0.31276389  0.84133957     1.02300
O816        O  0.67398189  0.28631233  0.87056909    -0.78200
O817        O  0.69575339  0.23929097  0.94107570    -0.78300
C818        C  0.67048734  0.25132419  0.97246303     1.02200
Cr819      Cr  0.74258469  0.31457406  0.98280859     1.93700
Cr820      Cr  0.74896426  0.36046528  0.89559085     1.93200
Cr821      Cr  0.73602310  0.26862266  0.89705447     1.39100
O822        O  0.74304741  0.31465771  0.92529184    -1.23400
C823        C  0.60126998  0.15460843  0.99483374     0.02800
C824        C  0.61255338  0.19209507  0.97556831    -0.13300
C825        C  0.64215175  0.22072621  0.99717260     0.00300
C826        C  0.65913484  0.21226275  0.53871716    -0.11900
C827        C  0.65465870  0.17324209  0.55636541     0.02800
C828        C  0.62402757  0.14465109  0.53491052    -0.11300
H829        H  0.59994402  0.19858708  0.94293328     0.08400
H830        H  0.68270054  0.23484327  0.55430930     0.05900
H831        H  0.61917593  0.11484214  0.54845929     0.05800
C832        C  0.89063407  0.15704070  0.98280956     0.02800
C833        C  0.86681182  0.18810424  0.96039388    -0.13300
C834        C  0.83257069  0.21162057  0.98272061     0.00300
C835        C  0.82362295  0.20402503  0.52696065    -0.11900
C836        C  0.84396156  0.17199718  0.54837261     0.02800
C837        C  0.87695228  0.14812633  0.52635689    -0.11300
H838        H  0.87527441  0.19420253  0.92656034     0.08400
H839        H  0.79734033  0.22150849  0.54483684     0.05900
H840        H  0.89218758  0.12287939  0.54335264     0.05800
O841        O  0.52694073  0.01362930  0.98787395    -0.85700
O842        O  0.55806387  0.09187168  0.98707345    -0.82700
C843        C  0.56581871  0.12671115  0.97253449     0.97800
O844        O  0.54121296  0.13905803  0.94034400    -0.82800
O845        O  0.56127475  0.09289111  0.86512416    -0.85400
C846        C  0.55971178  0.06140375  0.84184853     1.02300
O847        O  0.52433393  0.03649003  0.84623859    -0.78200
O848        O  0.54814458  0.49684696  0.92169805    -0.78400
C849        C  0.55234800  0.99285106  0.96238791     1.02300
O850        O  0.92661816  0.03661462  0.98653783    -0.85700
O851        O  0.95846910  0.11576206  0.98900567    -0.82700
C852        C  0.93049053  0.13358976  0.96310853     0.97800
O853        O  0.93715172  0.13134619  0.92238356    -0.82800
O854        O  0.95736861  0.09186621  0.84463842    -0.85400
C855        C  0.92657599  0.06271967  0.84134899     1.02300
O856        O  0.92396892  0.03626565  0.87057942    -0.78200
O857        O  0.94578086  0.48927663  0.94110435    -0.78300
C858        C  0.92049713  0.00130829  0.97247787     1.02200
Cr859      Cr  0.99255688  0.06457780  0.98281595     1.93700
Cr860      Cr  0.99890862  0.11045670  0.89559269     1.93200
Cr861      Cr  0.98602676  0.01861161  0.89707512     1.39100
O862        O  0.99301729  0.06465319  0.92530165    -1.23400
C863        C  0.85134077  0.40457584  0.99483433     0.02800
C864        C  0.87412083  0.39462104  0.53490165    -0.13300
C865        C  0.90473375  0.42322688  0.55635790     0.00300
C866        C  0.90916695  0.46225273  0.53872530    -0.11900
C867        C  0.89217071  0.47071199  0.99718653     0.02800
C868        C  0.86259283  0.44207149  0.97557863    -0.11300
H869        H  0.86929643  0.36480688  0.54844308     0.08400
H870        H  0.93271530  0.48484302  0.55432055     0.05900
H871        H  0.84997414  0.44856618  0.94294721     0.05800
C872        C  0.64072933  0.40710053  0.98283594     0.02800
C873        C  0.61689039  0.43815762  0.96041894    -0.13300
C874        C  0.58267066  0.46169167  0.98275586     0.00300
C875        C  0.57377862  0.45412820  0.52701194    -0.11900
C876        C  0.59409988  0.42208799  0.54841866     0.02800
C877        C  0.62706729  0.39820210  0.52639243    -0.11300
H878        H  0.62531483  0.44423088  0.92657330     0.08400
H879        H  0.54752209  0.47162800  0.54489951     0.05900
H880        H  0.64229158  0.37294914  0.54338532     0.05800
O881        O  0.72292201  0.21147857  0.73786488    -0.85700
O882        O  0.69176539  0.13323986  0.73710315    -0.82700
C883        C  0.68398974  0.09840313  0.72256248     0.97800
O884        O  0.70857212  0.08605287  0.69036125    -0.82800
O885        O  0.68851252  0.13221031  0.61512423    -0.85400
C886        C  0.69009134  0.16369294  0.59183771     1.02300
O887        O  0.72547388  0.18860080  0.59623157    -0.78200
O888        O  0.70171904  0.22826151  0.67168809    -0.78400
C889        C  0.69753300  0.23226909  0.71237759     1.02300
O890        O  0.82323218  0.18847280  0.73651225    -0.85700
O891        O  0.79135287  0.10932895  0.73901419    -0.82700
C892        C  0.81930808  0.09147758  0.71311721     0.97800
O893        O  0.81263047  0.09371134  0.67239186    -0.82800
O894        O  0.79240676  0.13318396  0.59463343    -0.85400
C895        C  0.82320993  0.16231981  0.59132764     1.02300
O896        O  0.82584524  0.18877798  0.62055113    -0.78200
O897        O  0.80408475  0.23580410  0.69106130    -0.78300
C898        C  0.82936402  0.22377510  0.72244063     1.02200
Cr899      Cr  0.75728245  0.16051981  0.73281447     1.93700
Cr900      Cr  0.75087623  0.11462400  0.64560017     1.93200
Cr901      Cr  0.76381034  0.20646581  0.64705543     1.39100
O902        O  0.75680034  0.16043226  0.67529772    -1.23400
C903        C  0.89855459  0.32050158  0.74479785     0.02800
C904        C  0.87578336  0.33045911  0.78487002    -0.13300
C905        C  0.84515651  0.30186351  0.80632728     0.00300
C906        C  0.84069418  0.26284265  0.78868357    -0.11900
C907        C  0.85768996  0.25437843  0.74714443     0.02800
C908        C  0.88728274  0.28301184  0.72553709    -0.11300
H909        H  0.88062823  0.36026924  0.79841721     0.08400
H910        H  0.81713329  0.24025891  0.80427653     0.05900
H911        H  0.89990034  0.27651731  0.69290521     0.05800
C912        C  0.60919630  0.31803799  0.73282240     0.02800
C913        C  0.62287097  0.32695062  0.77636990    -0.13300
C914        C  0.65585257  0.30307591  0.79839059     0.00300
C915        C  0.67618249  0.27103915  0.77698522    -0.11900
C916        C  0.66725164  0.26345049  0.73274143     0.02800
C917        C  0.63301936  0.28697247  0.71040977    -0.11300
H918        H  0.60764087  0.35220216  0.79336077     0.08400
H919        H  0.70245438  0.25354990  0.79486655     0.05900
H920        H  0.62456787  0.28087989  0.67657359     0.05800
O921        O  0.97291457  0.46147126  0.73786645    -0.85700
O922        O  0.94176919  0.38323572  0.73704247    -0.82700
C923        C  0.93401764  0.34839599  0.72250433     0.97800
O924        O  0.95864081  0.33604580  0.69032451    -0.82800
O925        O  0.93861321  0.38220869  0.61509849    -0.85400
C926        C  0.94017686  0.41369593  0.59182377     1.02300
O927        O  0.97554222  0.43862195  0.59623053    -0.78200
O928        O  0.95172920  0.47826099  0.67168915    -0.78400
C929        C  0.94752323  0.48225918  0.71237784     1.02300
O930        O  0.57323072  0.43847224  0.73655750    -0.85700
O931        O  0.54136263  0.35932258  0.73900547    -0.82700
C932        C  0.56935248  0.34149800  0.71311466     0.97800
O933        O  0.56271329  0.34375305  0.67238842    -0.82800
O934        O  0.54252411  0.38324126  0.59464111    -0.85400
C935        C  0.57331427  0.41239085  0.59136008     1.02300
O936        O  0.57591293  0.43883980  0.62059426    -0.78200
O937        O  0.55409027  0.48581898  0.69112021    -0.78300
C938        C  0.57936343  0.47377968  0.72250103     1.02200
Cr939      Cr  0.00728693  0.41051648  0.73281227     1.93700
Cr940      Cr  0.00096657  0.36464595  0.64558475     1.93200
Cr941      Cr  0.01384878  0.45649260  0.64707767     1.39100
O942        O  0.00684745  0.41044795  0.67529782    -1.23400
C943        C  0.64854563  0.07050466  0.74486710     0.02800
C944        C  0.62577799  0.08045994  0.78493764    -0.13300
C945        C  0.59516113  0.05185952  0.80639374     0.00300
C946        C  0.59071369  0.01283348  0.78875904    -0.11900
C947        C  0.60769824  0.00437392  0.74721578     0.02800
C948        C  0.63728289  0.03301150  0.72560906    -0.11300
H949        H  0.63060853  0.11027367  0.79847877     0.08400
H950        H  0.56715727  0.49024578  0.80435271     0.05900
H951        H  0.64989467  0.02651859  0.69297510     0.05800
C952        C  0.85915595  0.06801153  0.73282406     0.02800
C953        C  0.88299204  0.03695391  0.71040705    -0.13300
C954        C  0.91721881  0.01342516  0.73274116     0.00300
C955        C  0.92612662  0.02099639  0.77699249    -0.11900
C956        C  0.90579973  0.05303133  0.79840201     0.02800
C957        C  0.87282550  0.07691368  0.77637833    -0.11300
H958        H  0.87455633  0.03087330  0.67656527     0.08400
H959        H  0.95239189  0.50350533  0.79487691     0.05900
H960        H  0.85759753  0.10216384  0.79337320     0.05800
O961        O  0.77693088  0.76361162  0.48785151    -0.85700
O962        O  0.80810840  0.84184288  0.48707790    -0.82700
C963        C  0.81588468  0.87667935  0.47253678     0.97800
O964        O  0.79128969  0.88903352  0.44034361    -0.82800
O965        O  0.81131371  0.84288189  0.36509930    -0.85400
C966        C  0.80972974  0.81140172  0.34181108     1.02300
O967        O  0.77435479  0.78648583  0.34621910    -0.78200
O968        O  0.79811468  0.74682103  0.42167239    -0.78400
C969        C  0.80230419  0.74281252  0.46236089     1.02300
O970        O  0.67662873  0.78662701  0.48653012    -0.85700
O971        O  0.70852433  0.86577191  0.48901508    -0.82700
C972        C  0.68056293  0.88362493  0.46312398     0.97800
O973        O  0.68722144  0.88138235  0.42239744    -0.82800
O974        O  0.70741401  0.84190200  0.34463613    -0.85400
C975        C  0.67661100  0.81276440  0.34134044     1.02300
O976        O  0.67398122  0.78631256  0.37056967    -0.78200
O977        O  0.69575246  0.73929087  0.44107602    -0.78300
C978        C  0.67048553  0.75132389  0.47246289     1.02200
Cr979      Cr  0.74258224  0.81457390  0.48280957     1.93700
Cr980      Cr  0.74896346  0.86046555  0.39559202     1.93200
Cr981      Cr  0.73602231  0.76862309  0.39705520     1.39100
O982        O  0.74304601  0.81465797  0.42529283    -1.23400
C983        C  0.60126932  0.65460718  0.49483302     0.02800
C984        C  0.61255257  0.69209391  0.47556764    -0.13300
C985        C  0.64215005  0.72072551  0.49717224     0.00300
C986        C  0.65913241  0.71226285  0.03871672    -0.11900
C987        C  0.65465697  0.67324210  0.05636490     0.02800
C988        C  0.62402671  0.64465074  0.03490964    -0.11300
H989        H  0.59994367  0.69858567  0.44293232     0.08400
H990        H  0.68269730  0.73484368  0.05430919     0.05900
H991        H  0.61917534  0.61484165  0.04845847     0.05800
C992        C  0.89063299  0.65704233  0.48281129     0.02800
C993        C  0.86681051  0.68810558  0.46039549    -0.13300
C994        C  0.83256863  0.71162126  0.48272196     0.00300
C995        C  0.82362148  0.70402667  0.02696168    -0.11900
C996        C  0.84396004  0.67199880  0.04837355     0.02800
C997        C  0.87695129  0.64812831  0.02635806    -0.11300
H998        H  0.87527345  0.69420412  0.42656217     0.08400
H999        H  0.79733875  0.72150979  0.04483766     0.05900
H1000       H  0.89218667  0.62288140  0.04335382     0.05800
O1001       O  0.52694077  0.51362734  0.48787387    -0.85700
O1002       O  0.55806462  0.59186977  0.48707218    -0.82700
C1003       C  0.56581866  0.62670947  0.47253349     0.97800
O1004       O  0.54121231  0.63905620  0.44034324    -0.82800
O1005       O  0.56127351  0.59288919  0.36512316    -0.85400
C1006       C  0.55971077  0.56140164  0.34184778     1.02300
O1007       O  0.52433370  0.53648726  0.34623858    -0.78200
O1008       O  0.54814539  0.99684900  0.42169835    -0.78400
C1009       C  0.55234767  0.49284885  0.46238778     1.02300
O1010       O  0.92661630  0.53661665  0.48653822    -0.85700
O1011       O  0.95846816  0.61576398  0.48900724    -0.82700
C1012       C  0.93048964  0.63359180  0.46311023     0.97800
O1013       O  0.93715095  0.63134865  0.42238522    -0.82800
O1014       O  0.95736760  0.59186933  0.34463944    -0.85400
C1015       C  0.92657478  0.56272289  0.34134980     1.02300
O1016       O  0.92396752  0.53626880  0.37058014    -0.78200
O1017       O  0.94578258  0.98927367  0.44110380    -0.78300
C1018       C  0.92049541  0.50131041  0.47247796     1.02200
Cr1019     Cr  0.99255531  0.56457960  0.48281697     1.93700
Cr1020     Cr  0.99890773  0.61045931  0.39559404     1.93200
Cr1021     Cr  0.98602537  0.51861433  0.39707564     1.39100
O1022       O  0.99301606  0.56465559  0.42530264    -1.23400
C1023       C  0.85134088  0.90457417  0.49483543     0.02800
C1024       C  0.87412119  0.89461967  0.03490217    -0.13300
C1025       C  0.90473524  0.92322491  0.05635798     0.00300
C1026       C  0.90916918  0.96225067  0.03872522    -0.11900
C1027       C  0.89217301  0.97070938  0.49718660     0.02800
C1028       C  0.86259390  0.94206943  0.47557928    -0.11300
H1029       H  0.86929615  0.86480527  0.04844382     0.08400
H1030       H  0.93271850  0.98484075  0.05432017     0.05900
H1031       H  0.84997485  0.94856423  0.44294809     0.05800
C1032       C  0.64072915  0.90710215  0.48283687     0.02800
C1033       C  0.61689068  0.93815941  0.46041965    -0.13300
C1034       C  0.58267115  0.96169373  0.48275659     0.00300
C1035       C  0.57377900  0.95413063  0.02701226    -0.11900
C1036       C  0.59410018  0.92209039  0.04841900     0.02800
C1037       C  0.62706726  0.89820429  0.02639272    -0.11300
H1038       H  0.62531491  0.94423234  0.42657434     0.08400
H1039       H  0.54752268  0.97163049  0.04489980     0.05900
H1040       H  0.64229125  0.87295129  0.04338561     0.05800
O1041       O  0.72291922  0.71147898  0.23786558    -0.85700
O1042       O  0.69176254  0.63324023  0.23710262    -0.82700
C1043       C  0.68398778  0.59840338  0.22256196     0.97800
O1044       O  0.70857085  0.58605332  0.19036109    -0.82800
O1045       O  0.68851082  0.63221067  0.11512410    -0.85400
C1046       C  0.69008931  0.66369344  0.09183771     1.02300
O1047       O  0.72547123  0.68860182  0.09623214    -0.78200
O1048       O  0.70171636  0.72826219  0.17168889    -0.78400
C1049       C  0.69753032  0.73226963  0.21237841     1.02300
O1050       O  0.82322935  0.68847328  0.23651328    -0.85700
O1051       O  0.79134979  0.60932939  0.23901463    -0.82700
C1052       C  0.81930601  0.59147893  0.21311782     0.97800
O1053       O  0.81262905  0.59371301  0.17239239    -0.82800
O1054       O  0.79240498  0.63318525  0.09463378    -0.85400
C1055       C  0.82320796  0.66232122  0.09132827     1.02300
O1056       O  0.82584283  0.68877931  0.12055181    -0.78200
O1057       O  0.80408231  0.73580469  0.19106224    -0.78300
C1058       C  0.82936159  0.72377553  0.22244152     1.02200
Cr1059     Cr  0.75727959  0.66052028  0.23281493     1.93700
Cr1060     Cr  0.75087461  0.61462489  0.14560034     1.93200
Cr1061     Cr  0.76380778  0.70646670  0.14705615     1.39100
O1062       O  0.75679793  0.66043303  0.17529815    -1.23400
C1063       C  0.89855490  0.82050117  0.24479858     0.02800
C1064       C  0.87578379  0.83045913  0.28487088    -0.13300
C1065       C  0.84515608  0.80186388  0.30632809     0.00300
C1066       C  0.84069307  0.76284309  0.28868434    -0.11900
C1067       C  0.85768830  0.75437867  0.24714509     0.02800
C1068       C  0.88728174  0.78301169  0.22553778    -0.11300
H1069       H  0.88062942  0.86026893  0.29841797     0.08400
H1070       H  0.81713188  0.74025954  0.30427735     0.05900
H1071       H  0.89989913  0.77651693  0.19290557     0.05800
C1072       C  0.60919594  0.81803984  0.23282317     0.02800
C1073       C  0.62287074  0.82695225  0.27637065    -0.13300
C1074       C  0.65585125  0.80307676  0.29839153     0.00300
C1075       C  0.67618002  0.77103943  0.27698628    -0.11900
C1076       C  0.66724941  0.76345119  0.23274235     0.02800
C1077       C  0.63301808  0.78697389  0.21041066    -0.11300
H1078       H  0.60764125  0.85220436  0.29336148     0.08400
H1079       H  0.70245117  0.75354948  0.29486776     0.05900
H1080       H  0.62456650  0.78088146  0.17657421     0.05800
O1081       O  0.97291688  0.96147014  0.23786493    -0.85700
O1082       O  0.94177109  0.88323475  0.23704269    -0.82700
C1083       C  0.93401894  0.84839495  0.22250496     0.97800
O1084       O  0.95864218  0.83604418  0.19032537    -0.82800
O1085       O  0.93861464  0.88220644  0.11509854    -0.85400
C1086       C  0.94017861  0.91369349  0.09182345     1.02300
O1087       O  0.97554460  0.93861897  0.09622954    -0.78200
O1088       O  0.95173138  0.97825935  0.17168750    -0.78400
C1089       C  0.94752527  0.98225773  0.21237619     1.02300
O1090       O  0.57322965  0.93847430  0.23655936    -0.85700
O1091       O  0.54136249  0.85932455  0.23900607    -0.82700
C1092       C  0.56935267  0.84150019  0.21311537     0.97800
O1093       O  0.56271408  0.84375545  0.17238905    -0.82800
O1094       O  0.54252471  0.88324348  0.09464152    -0.85400
C1095       C  0.57331472  0.91239314  0.09136047     1.02300
O1096       O  0.57591354  0.93884183  0.12059488    -0.78200
O1097       O  0.55409112  0.98582065  0.19112083    -0.78300
C1098       C  0.57936346  0.97378142  0.22250222     1.02200
Cr1099     Cr  0.00728902  0.91051526  0.23281173     1.93700
Cr1100     Cr  0.00096809  0.86464368  0.14558493     1.93200
Cr1101     Cr  0.01385101  0.95649026  0.14707649     1.39100
O1102       O  0.00684935  0.91044600  0.17529732    -1.23400
C1103       C  0.64854407  0.57050442  0.24486616     0.02800
C1104       C  0.62577633  0.58045902  0.28493683    -0.13300
C1105       C  0.59515965  0.55185812  0.30639239     0.00300
C1106       C  0.59071228  0.51283235  0.28875693    -0.11900
C1107       C  0.60769772  0.50437335  0.24721377     0.02800
C1108       C  0.63728215  0.53301135  0.22560761    -0.11300
H1109       H  0.63060668  0.61027246  0.29847846     0.08400
H1110       H  0.56715938  0.99024787  0.30435395     0.05900
H1111       H  0.64989435  0.52651885  0.19297383     0.05800
C1112       C  0.85915428  0.56801362  0.23282486     0.02800
C1113       C  0.88299066  0.53695615  0.21040795    -0.13300
C1114       C  0.91721797  0.51342796  0.23274200     0.00300
C1115       C  0.92612644  0.52099981  0.27699310    -0.11900
C1116       C  0.90579892  0.55303451  0.29840263     0.02800
C1117       C  0.87282386  0.57691621  0.27637902    -0.11300
H1118       H  0.87455464  0.53087514  0.17656642     0.08400
H1119       H  0.95239146  0.00350196  0.29487577     0.05900
H1120       H  0.85759529  0.60216619  0.29337382     0.05800
O1121       O  0.77693113  0.76361193  0.98785146    -0.85700
O1122       O  0.80810867  0.84184321  0.98707760    -0.82700
C1123       C  0.81588486  0.87667969  0.97253651     0.97800
O1124       O  0.79128993  0.88903379  0.94034326    -0.82800
O1125       O  0.81131397  0.84288171  0.86509908    -0.85400
C1126       C  0.80972986  0.81140142  0.84181097     1.02300
O1127       O  0.77435477  0.78648569  0.84621903    -0.78200
O1128       O  0.79811497  0.74682120  0.92167240    -0.78400
C1129       C  0.80230458  0.74281288  0.96236091     1.02300
O1130       O  0.67662895  0.78662734  0.98653011    -0.85700
O1131       O  0.70852456  0.86577219  0.98901460    -0.82700
C1132       C  0.68056316  0.88362515  0.96312350     0.97800
O1133       O  0.68722184  0.88138264  0.92239695    -0.82800
O1134       O  0.70741425  0.84190180  0.84463606    -0.85400
C1135       C  0.67661111  0.81276427  0.84134063     1.02300
O1136       O  0.67398132  0.78631255  0.87057000    -0.78200
O1137       O  0.69575288  0.73929107  0.94107630    -0.78300
C1138       C  0.67048572  0.75132419  0.97246294     1.02200
Cr1139     Cr  0.74258251  0.81457421  0.98280937     1.93700
Cr1140     Cr  0.74896381  0.86046560  0.89559172     1.93200
Cr1141     Cr  0.73602253  0.76862313  0.89705529     1.39100
O1142       O  0.74304637  0.81465809  0.92529267    -1.23400
C1143       C  0.60126938  0.65460750  0.99483279     0.02800
C1144       C  0.61255252  0.69209428  0.97556736    -0.13300
C1145       C  0.64214997  0.72072586  0.99717217     0.00300
C1146       C  0.65913274  0.71226252  0.53871675    -0.11900
C1147       C  0.65465703  0.67324179  0.55636505     0.02800
C1148       C  0.62402667  0.64465045  0.53490988    -0.11300
H1149       H  0.59994377  0.69858600  0.94293240     0.08400
H1150       H  0.68269770  0.73484320  0.55430894     0.05900
H1151       H  0.61917528  0.61484137  0.54845874     0.05800
C1152       C  0.89063322  0.65704268  0.98281125     0.02800
C1153       C  0.86681097  0.68810609  0.96039551    -0.13300
C1154       C  0.83256919  0.71162180  0.98272204     0.00300
C1155       C  0.82362091  0.70402606  0.52696161    -0.11900
C1156       C  0.84395974  0.67199842  0.54837362     0.02800
C1157       C  0.87695115  0.64812799  0.52635817    -0.11300
H1158       H  0.87527389  0.69420466  0.92656228     0.08400
H1159       H  0.79733788  0.72150917  0.54483762     0.05900
H1160       H  0.89218662  0.62288128  0.54335390     0.05800
O1161       O  0.52694089  0.51362768  0.98787385    -0.85700
O1162       O  0.55806469  0.59187010  0.98707211    -0.82700
C1163       C  0.56581875  0.62670976  0.97253333     0.97800
O1164       O  0.54121246  0.63905644  0.94034304    -0.82800
O1165       O  0.56127353  0.59288931  0.86512300    -0.85400
C1166       C  0.55971063  0.56140174  0.84184765     1.02300
O1167       O  0.52433351  0.53648742  0.84623853    -0.78200
O1168       O  0.54814515  0.99684902  0.92169817    -0.78400
C1169       C  0.55234773  0.49284916  0.96238777     1.02300
O1170       O  0.92661608  0.53661697  0.98653827    -0.85700
O1171       O  0.95846822  0.61576427  0.98900722    -0.82700
C1172       C  0.93048976  0.63359209  0.96311016     0.97800
O1173       O  0.93715110  0.63134890  0.92238517    -0.82800
O1174       O  0.95736770  0.59186930  0.84463947    -0.85400
C1175       C  0.92657474  0.56272297  0.84134990     1.02300
O1176       O  0.92396731  0.53626901  0.87058038    -0.78200
O1177       O  0.94578245  0.98927400  0.94110401    -0.78300
C1178       C  0.92049516  0.50131071  0.97247805     1.02200
Cr1179     Cr  0.99255525  0.56457985  0.98281705     1.93700
Cr1180     Cr  0.99890786  0.61045937  0.89559408     1.93200
Cr1181     Cr  0.98602516  0.51861448  0.89707578     1.39100
O1182       O  0.99301605  0.56465574  0.92530274    -1.23400
C1183       C  0.85134086  0.90457459  0.99483526     0.02800
C1184       C  0.87412125  0.89461932  0.53490233    -0.13300
C1185       C  0.90473540  0.92322455  0.55635803     0.00300
C1186       C  0.90916958  0.96225025  0.53872511    -0.11900
C1187       C  0.89217269  0.97070993  0.99718675     0.02800
C1188       C  0.86259369  0.94206996  0.97557929    -0.11300
H1189       H  0.86929610  0.86480492  0.54844412     0.08400
H1190       H  0.93271884  0.98484021  0.55431985     0.05900
H1191       H  0.84997470  0.94856486  0.94294813     0.05800
C1192       C  0.64072913  0.90710217  0.98283635     0.02800
C1193       C  0.61689055  0.93815942  0.96041928    -0.13300
C1194       C  0.58267092  0.96169364  0.98275620     0.00300
C1195       C  0.57377942  0.95413094  0.52701275    -0.11900
C1196       C  0.59410054  0.92209071  0.54841962     0.02800
C1197       C  0.62706741  0.89820450  0.52639326    -0.11300
H1198       H  0.62531495  0.94423256  0.92657382     0.08400
H1199       H  0.54752313  0.97163085  0.54490030     0.05900
H1200       H  0.64229140  0.87295130  0.54338626     0.05800
O1201       O  0.72291930  0.71147846  0.73786593    -0.85700
O1202       O  0.69176238  0.63323976  0.73710258    -0.82700
C1203       C  0.68398759  0.59840289  0.72256194     0.97800
O1204       O  0.70857063  0.58605282  0.69036110    -0.82800
O1205       O  0.68851073  0.63221027  0.61512417    -0.85400
C1206       C  0.69008924  0.66369309  0.59183790     1.02300
O1207       O  0.72547103  0.68860158  0.59623253    -0.78200
O1208       O  0.70171657  0.72826195  0.67168929    -0.78400
C1209       C  0.69753050  0.73226927  0.71237880     1.02300
O1210       O  0.82322939  0.68847257  0.73651361    -0.85700
O1211       O  0.79134952  0.60932876  0.73901474    -0.82700
C1212       C  0.81930573  0.59147831  0.71311790     0.97800
O1213       O  0.81262879  0.59371244  0.67239249    -0.82800
O1214       O  0.79240469  0.63318485  0.59463383    -0.85400
C1215       C  0.82320769  0.66232078  0.59132838     1.02300
O1216       O  0.82584266  0.68877877  0.62055203    -0.78200
O1217       O  0.80408256  0.73580403  0.69106252    -0.78300
C1218       C  0.82936177  0.72377481  0.72244184     1.02200
Cr1219     Cr  0.75727952  0.66051970  0.73281509     1.93700
Cr1220     Cr  0.75087442  0.61462445  0.64560042     1.93200
Cr1221     Cr  0.76380777  0.70646629  0.64705645     1.39100
O1222       O  0.75679787  0.66043257  0.67529832    -1.23400
C1223       C  0.89855506  0.82050036  0.74479860     0.02800
C1224       C  0.87578397  0.83045837  0.78487081    -0.13300
C1225       C  0.84515625  0.80186332  0.80632817     0.00300
C1226       C  0.84069319  0.76284246  0.78868457    -0.11900
C1227       C  0.85768854  0.75437790  0.74714538     0.02800
C1228       C  0.88728205  0.78301077  0.72553791    -0.11300
H1229       H  0.88062963  0.86026852  0.79841795     0.08400
H1230       H  0.81713196  0.74025905  0.80427764     0.05900
H1231       H  0.89989946  0.77651593  0.69290602     0.05800
C1232       C  0.60919595  0.81803941  0.73282351     0.02800
C1233       C  0.62287079  0.82695194  0.77637095    -0.13300
C1234       C  0.65585133  0.80307645  0.79839182     0.00300
C1235       C  0.67618014  0.77103911  0.77698663    -0.11900
C1236       C  0.66724959  0.76345083  0.73274273     0.02800
C1237       C  0.63301819  0.78697350  0.71041102    -0.11300
H1238       H  0.60764143  0.85220396  0.79336167     0.08400
H1239       H  0.70245132  0.75354917  0.79486813     0.05900
H1240       H  0.62456659  0.78088104  0.67657452     0.05800
O1241       O  0.97291654  0.96146955  0.73786540    -0.85700
O1242       O  0.94177098  0.88323395  0.73704277    -0.82700
C1243       C  0.93401897  0.84839417  0.72250492     0.97800
O1244       O  0.95864218  0.83604355  0.69032525    -0.82800
O1245       O  0.93861466  0.88220605  0.61509861    -0.85400
C1246       C  0.94017859  0.91369315  0.59182366     1.02300
O1247       O  0.97554449  0.93861867  0.59622991    -0.78200
O1248       O  0.95173080  0.97825868  0.67168802    -0.78400
C1249       C  0.94752477  0.98225708  0.71237669     1.02300
O1250       O  0.57322936  0.93847367  0.73656038    -0.85700
O1251       O  0.54136225  0.85932389  0.73900647    -0.82700
C1252       C  0.56935262  0.84149975  0.71311574     0.97800
O1253       O  0.56271425  0.84375532  0.67238942    -0.82800
O1254       O  0.54252490  0.88324353  0.59464192    -0.85400
C1255       C  0.57331477  0.91239332  0.59136102     1.02300
O1256       O  0.57591335  0.93884189  0.62059556    -0.78200
O1257       O  0.55409077  0.98582012  0.69112198    -0.78300
C1258       C  0.57936322  0.97378080  0.72250326     1.02200
Cr1259     Cr  0.00728881  0.91051466  0.73281201     1.93700
Cr1260     Cr  0.00096810  0.86464332  0.64558501     1.93200
Cr1261     Cr  0.01385056  0.95648992  0.64707699     1.39100
O1262       O  0.00684911  0.91044554  0.67529763    -1.23400
C1263       C  0.64854394  0.57050397  0.74486617     0.02800
C1264       C  0.62577626  0.58045873  0.78493675    -0.13300
C1265       C  0.59515942  0.55185803  0.80639235     0.00300
C1266       C  0.59071198  0.51283224  0.78875706    -0.11900
C1267       C  0.60769741  0.50437297  0.74721403     0.02800
C1268       C  0.63728197  0.53301084  0.72560782    -0.11300
H1269       H  0.63060679  0.61027233  0.79847832     0.08400
H1270       H  0.56715914  0.99024722  0.80435516     0.05900
H1271       H  0.64989425  0.52651814  0.69297385     0.05800
C1272       C  0.85915404  0.56801305  0.73282498     0.02800
C1273       C  0.88299046  0.53695556  0.71040811    -0.13300
C1274       C  0.91721795  0.51342759  0.73274228     0.00300
C1275       C  0.92612661  0.52099972  0.77699329    -0.11900
C1276       C  0.90579897  0.55303440  0.79840274     0.02800
C1277       C  0.87282366  0.57691586  0.77637908    -0.11300
H1278       H  0.87455442  0.53087440  0.67656693     0.08400
H1279       H  0.95239105  0.00350148  0.79487623     0.05900
H1280       H  0.85759504  0.60216579  0.79337376     0.05800
loop_ 
_geom_bond_atom_site_label_1 
_geom_bond_atom_site_label_2 
_geom_bond_distance 
_geom_bond_site_symmetry_2 
_ccdc_geom_bond_type 
O1          Cr19   1.970       .  S
O1            C9   1.264       .  A
O2          Cr19   1.976       .  S
O2            C3   1.258       .  A
C3            O4   1.269       .  A
C3           C63   1.485       .  S
O4          Cr20   2.013       .  S
O5          Cr20   2.035       .  S
O5            C6   1.271       .  A
C6            O7   1.258       .  A
C6          C105   1.494       .  S
O7          Cr21   1.959       .  S
O8          Cr21   2.003       .  S
O8            C9   1.263       .  A
C9           C34   1.484       .  S
O10         Cr19   1.995       .  S
O10          C18   1.261       .  A
O11         Cr19   1.976       .  S
O11          C12   1.261       .  A
C12          O13   1.267       .  A
C12          C72   1.483       .  S
O13         Cr20   2.010       .  S
O14         Cr20   2.016       .  S
O14          C15   1.267       .  A
C15          O16   1.260       .  A
C15         C114   1.467       .  S
O16         Cr21   1.975       .  S
O17         Cr21   1.979       .  S
O17          C18   1.256       .  A
C18          C25   1.470       .  S
Cr19         O22   1.768       .  S
Cr20         O22   1.784       .  S
Cr21         O22   1.770       .  S
C23          C43   1.485       .  S
C23          C24   1.409       .  A
C23         C188   1.422       .  A
C24          C25   1.397       .  A
C24          H29   1.084       .  S
C25         C186   1.389       .  A
C26          C27   1.413       .  A
C26         C185   1.389   1_554  A
C26          H30   1.085       .  S
C27          C86   1.494       .  S
C27          C28   1.410       .  A
C28         C183   1.422   1_554  A
C28          H31   1.083       .  S
C32          C52   1.483       .  S
C32          C33   1.417       .  A
C32         C197   1.418       .  A
C33          C34   1.412       .  A
C33          H38   1.083       .  S
C34         C195   1.403       .  A
C35          C36   1.384       .  A
C35         C194   1.403   1_554  A
C35          H39   1.084       .  S
C36          C95   1.467       .  S
C36          C37   1.391       .  A
C37         C192   1.418   1_554  A
C37          H40   1.084       .  S
O41        Cr699   1.970   1_455  S
O41          C49   1.264   1_545  A
O42        Cr699   1.976   1_455  S
O42          C43   1.258       .  A
C43          O44   1.269       .  A
O44        Cr700   2.013   1_455  S
O45        Cr700   2.035   1_455  S
O45          C46   1.271       .  A
C46          O47   1.257       .  A
C46         C145   1.494       .  S
O47        Cr701   1.959   1_455  S
O48       Cr1021   2.003   1_455  S
O48         C369   1.263       .  A
C49         O368   1.263       .  A
C49         C394   1.484       .  S
O50         Cr59   1.995       .  S
O50          C58   1.261       .  A
O51         Cr59   1.976       .  S
O51          C52   1.261       .  A
C52          O53   1.267       .  A
O53         Cr60   2.010       .  S
O54         Cr60   2.016       .  S
O54          C55   1.267       .  A
C55          O56   1.260       .  A
C55         C156   1.467       .  S
O56         Cr61   1.975       .  S
O57        Cr381   1.979       .  S
O57         C378   1.256       .  A
C58         O377   1.256   1_545  A
C58         C387   1.470   1_545  S
Cr59        O681   1.970       .  S
Cr59        O682   1.976       .  S
Cr59         O62   1.768       .  S
Cr60        O684   2.013       .  S
Cr60        O685   2.035       .  S
Cr60         O62   1.784       .  S
Cr61        O687   1.959       .  S
Cr61       O1008   2.003   1_545  S
Cr61        O377   1.979   1_545  S
Cr61         O62   1.770       .  S
C63          C68   1.409       .  A
C63         C224   1.422       .  A
C64          C65   1.410       .  A
C64         C223   1.422   1_554  A
C64          H69   1.083       .  S
C65         C126   1.494       .  S
C65          C66   1.413       .  A
C66         C227   1.389   1_554  A
C66          H70   1.085       .  S
C67         C378   1.470       .  S
C67          C68   1.397       .  A
C67         C226   1.389       .  A
C68          H71   1.084       .  S
C72          C73   1.417       .  A
C72         C237   1.418       .  A
C73          C74   1.412       .  A
C73          H78   1.083       .  S
C74         C369   1.484       .  S
C74         C235   1.403       .  A
C75          C76   1.384       .  A
C75         C234   1.403   1_554  A
C75          H79   1.084       .  S
C76         C135   1.467       .  S
C76          C77   1.392       .  A
C77         C232   1.418   1_554  A
C77          H80   1.084       .  S
O81         Cr99   1.970       .  S
O81          C89   1.264       .  A
O82         Cr99   1.976       .  S
O82          C83   1.258       .  A
C83          O84   1.269       .  A
C83         C143   1.485       .  S
O84        Cr100   2.013       .  S
O85        Cr100   2.035       .  S
O85          C86   1.271       .  A
C86          O87   1.257       .  A
O87        Cr101   1.959       .  S
O88        Cr101   2.003       .  S
O88          C89   1.263       .  A
C89         C116   1.484       .  S
O90         Cr99   1.995       .  S
O90          C98   1.261       .  A
O91         Cr99   1.976       .  S
O91          C92   1.261       .  A
C92          O93   1.267       .  A
C92         C152   1.483       .  S
O93        Cr100   2.010       .  S
O94        Cr100   2.016       .  S
O94          C95   1.267       .  A
C95          O96   1.260       .  A
O96        Cr101   1.975       .  S
O97        Cr101   1.979       .  S
O97          C98   1.256       .  A
C98         C107   1.470       .  S
Cr99        O102   1.768       .  S
Cr100       O102   1.784       .  S
Cr101       O102   1.770       .  S
C103        C123   1.485       .  S
C103        C104   1.422       .  A
C103        C108   1.409       .  A
C104        C105   1.410       .  A
C104        H109   1.083       .  S
C105        C106   1.413       .  A
C106        C107   1.389       .  A
C106        H110   1.085       .  S
C107        C108   1.397       .  A
C108        H111   1.084       .  S
C112        C132   1.483       .  S
C112        C113   1.418       .  A
C112        C117   1.417       .  A
C113        C114   1.391       .  A
C113        H118   1.084       .  S
C114        C115   1.384       .  A
C115        C116   1.403       .  A
C115        H119   1.084       .  S
C116        C117   1.412       .  A
C117        H120   1.083       .  S
O121       Cr139   1.970       .  S
O121        C129   1.264       .  A
O122       Cr139   1.976       .  S
O122        C123   1.258       .  A
C123        O124   1.269       .  A
O124       Cr140   2.013       .  S
O125       Cr140   2.035       .  S
O125        C126   1.271       .  A
C126        O127   1.258       .  A
O127       Cr141   1.959       .  S
O128       Cr141   2.003       .  S
O128        C129   1.263       .  A
C129        C474   1.484       .  S
O130       Cr779   1.995       .  S
O130        C138   1.261       .  A
O131       Cr779   1.976       .  S
O131        C132   1.261       .  A
C132        O133   1.267       .  A
O133       Cr780   2.010       .  S
O134       Cr780   2.016       .  S
O134        C135   1.267       .  A
C135        O136   1.260       .  A
O136       Cr781   1.975       .  S
O137       Cr781   1.979       .  S
O137        C138   1.256       .  A
C138        C467   1.470       .  S
Cr139       O770   1.995       .  S
Cr139       O771   1.976       .  S
Cr139       O142   1.768       .  S
Cr140       O773   2.010       .  S
Cr140       O774   2.016       .  S
Cr140       O142   1.784       .  S
Cr141       O776   1.975       .  S
Cr141       O777   1.979       .  S
Cr141       O142   1.770       .  S
C143        C144   1.422       .  A
C143        C148   1.409       .  A
C144        C145   1.410       .  A
C144        H149   1.083       .  S
C145        C146   1.413       .  A
C146        C147   1.389       .  A
C146        H470   1.085   1_545  S
C147        C458   1.470   1_545  S
C147        C148   1.397       .  A
C148        H151   1.084       .  S
H150        C466   1.085       .  S
C152        C153   1.417       .  A
C152        C157   1.418       .  A
C153        C154   1.412       .  A
C153        H158   1.083       .  S
C154        C449   1.484   1_545  S
C154        C155   1.403       .  A
C155        C156   1.384       .  A
C155        H479   1.084       .  S
C156        C157   1.392       .  A
C157        H160   1.084       .  S
H159        C475   1.084       .  S
O161       Cr179   1.970       .  S
O161        C169   1.264       .  A
O162       Cr179   1.976       .  S
O162        C163   1.258       .  A
C163        O164   1.269       .  A
C163        C223   1.485       .  S
O164       Cr180   2.013       .  S
O165       Cr180   2.035       .  S
O165        C166   1.271       .  A
C166        O167   1.258       .  A
C166        C265   1.494       .  S
O167       Cr181   1.959       .  S
O168       Cr181   2.003       .  S
O168        C169   1.263       .  A
C169        C194   1.484       .  S
O170       Cr179   1.995       .  S
O170        C178   1.261       .  A
O171       Cr179   1.976       .  S
O171        C172   1.261       .  A
C172        O173   1.267       .  A
C172        C232   1.483       .  S
O173       Cr180   2.010       .  S
O174       Cr180   2.016       .  S
O174        C175   1.267       .  A
C175        O176   1.260       .  A
C175        C274   1.467       .  S
O176       Cr181   1.975       .  S
O177       Cr181   1.979       .  S
O177        C178   1.256       .  A
C178        C185   1.470       .  S
Cr179       O182   1.768       .  S
Cr180       O182   1.784       .  S
Cr181       O182   1.770       .  S
C183        C203   1.485       .  S
C183        C184   1.409       .  A
C184        C185   1.397       .  A
C184        H189   1.084       .  S
C186        C187   1.413       .  A
C186        H190   1.085       .  S
C187        C246   1.494       .  S
C187        C188   1.410       .  A
C188        H191   1.083       .  S
C192        C212   1.483       .  S
C192        C193   1.417       .  A
C193        C194   1.412       .  A
C193        H198   1.083       .  S
C195        C196   1.384       .  A
C195        H199   1.084       .  S
C196        C255   1.467       .  S
C196        C197   1.391       .  A
C197        H200   1.084       .  S
O201       Cr859   1.970   1_455  S
O201        C209   1.264   1_545  A
O202       Cr859   1.976   1_455  S
O202        C203   1.258       .  A
C203        O204   1.269       .  A
O204       Cr860   2.013   1_455  S
O205       Cr860   2.035   1_455  S
O205        C206   1.271       .  A
C206        O207   1.257       .  A
C206        C305   1.494       .  S
O207       Cr861   1.959   1_455  S
O208      Cr1181   2.003   1_455  S
O208        C529   1.263       .  A
C209        O528   1.263       .  A
C209        C554   1.484       .  S
O210       Cr219   1.995       .  S
O210        C218   1.261       .  A
O211       Cr219   1.976       .  S
O211        C212   1.261       .  A
C212        O213   1.267       .  A
O213       Cr220   2.010       .  S
O214       Cr220   2.016       .  S
O214        C215   1.267       .  A
C215        O216   1.260       .  A
C215        C316   1.467       .  S
O216       Cr221   1.975       .  S
O217       Cr541   1.979       .  S
O217        C538   1.256       .  A
C218        O537   1.256   1_545  A
C218        C547   1.470   1_545  S
Cr219       O841   1.970       .  S
Cr219       O842   1.976       .  S
Cr219       O222   1.768       .  S
Cr220       O844   2.013       .  S
Cr220       O845   2.035       .  S
Cr220       O222   1.784       .  S
Cr221       O847   1.959       .  S
Cr221      O1168   2.003   1_545  S
Cr221       O537   1.979   1_545  S
Cr221       O222   1.770       .  S
C223        C228   1.409       .  A
C224        C225   1.410       .  A
C224        H229   1.083       .  S
C225        C286   1.494       .  S
C225        C226   1.413       .  A
C226        H230   1.085       .  S
C227        C538   1.470       .  S
C227        C228   1.397       .  A
C228        H231   1.084       .  S
C232        C233   1.417       .  A
C233        C234   1.412       .  A
C233        H238   1.083       .  S
C234        C529   1.484       .  S
C235        C236   1.384       .  A
C235        H239   1.084       .  S
C236        C295   1.467       .  S
C236        C237   1.392       .  A
C237        H240   1.084       .  S
O241       Cr259   1.970       .  S
O241        C249   1.264       .  A
O242       Cr259   1.976       .  S
O242        C243   1.258       .  A
C243        O244   1.269       .  A
C243        C303   1.485       .  S
O244       Cr260   2.013       .  S
O245       Cr260   2.035       .  S
O245        C246   1.271       .  A
C246        O247   1.257       .  A
O247       Cr261   1.959       .  S
O248       Cr261   2.003       .  S
O248        C249   1.263       .  A
C249        C276   1.484       .  S
O250       Cr259   1.995       .  S
O250        C258   1.261       .  A
O251       Cr259   1.976       .  S
O251        C252   1.261       .  A
C252        O253   1.267       .  A
C252        C312   1.483       .  S
O253       Cr260   2.010       .  S
O254       Cr260   2.016       .  S
O254        C255   1.267       .  A
C255        O256   1.260       .  A
O256       Cr261   1.975       .  S
O257       Cr261   1.979       .  S
O257        C258   1.256       .  A
C258        C267   1.470       .  S
Cr259       O262   1.768       .  S
Cr260       O262   1.784       .  S
Cr261       O262   1.770       .  S
C263        C283   1.485       .  S
C263        C264   1.422       .  A
C263        C268   1.409       .  A
C264        C265   1.410       .  A
C264        H269   1.083       .  S
C265        C266   1.413       .  A
C266        C267   1.389       .  A
C266        H270   1.085       .  S
C267        C268   1.397       .  A
C268        H271   1.084       .  S
C272        C292   1.483       .  S
C272        C273   1.418       .  A
C272        C277   1.417       .  A
C273        C274   1.391       .  A
C273        H278   1.084       .  S
C274        C275   1.384       .  A
C275        C276   1.403       .  A
C275        H279   1.084       .  S
C276        C277   1.412       .  A
C277        H280   1.083       .  S
O281       Cr299   1.970       .  S
O281        C289   1.264       .  A
O282       Cr299   1.976       .  S
O282        C283   1.258       .  A
C283        O284   1.269       .  A
O284       Cr300   2.013       .  S
O285       Cr300   2.035       .  S
O285        C286   1.271       .  A
C286        O287   1.258       .  A
O287       Cr301   1.959       .  S
O288       Cr301   2.003       .  S
O288        C289   1.263       .  A
C289        C634   1.484       .  S
O290       Cr939   1.995       .  S
O290        C298   1.261       .  A
O291       Cr939   1.976       .  S
O291        C292   1.261       .  A
C292        O293   1.267       .  A
O293       Cr940   2.010       .  S
O294       Cr940   2.016       .  S
O294        C295   1.267       .  A
C295        O296   1.260       .  A
O296       Cr941   1.975       .  S
O297       Cr941   1.979       .  S
O297        C298   1.256       .  A
C298        C627   1.470       .  S
Cr299       O930   1.995       .  S
Cr299       O931   1.976       .  S
Cr299       O302   1.768       .  S
Cr300       O933   2.010       .  S
Cr300       O934   2.016       .  S
Cr300       O302   1.784       .  S
Cr301       O936   1.975       .  S
Cr301       O937   1.979       .  S
Cr301       O302   1.770       .  S
C303        C304   1.422       .  A
C303        C308   1.409       .  A
C304        C305   1.410       .  A
C304        H309   1.083       .  S
C305        C306   1.413       .  A
C306        C307   1.389       .  A
C306        H630   1.085   1_545  S
C307        C618   1.470   1_545  S
C307        C308   1.397       .  A
C308        H311   1.084       .  S
H310        C626   1.085       .  S
C312        C313   1.417       .  A
C312        C317   1.418       .  A
C313        C314   1.412       .  A
C313        H318   1.083       .  S
C314        C609   1.484   1_545  S
C314        C315   1.403       .  A
C315        C316   1.384       .  A
C315        H639   1.084       .  S
C316        C317   1.392       .  A
C317        H320   1.084       .  S
H319        C635   1.084       .  S
O321       Cr339   1.970       .  S
O321        C329   1.264       .  A
O322       Cr339   1.976       .  S
O322        C323   1.258       .  A
C323        O324   1.269       .  A
C323        C383   1.485       .  S
O324       Cr340   2.013       .  S
O325       Cr340   2.035       .  S
O325        C326   1.271       .  A
C326        O327   1.258       .  A
C326        C425   1.494       .  S
O327       Cr341   1.959       .  S
O328       Cr341   2.003       .  S
O328        C329   1.263       .  A
C329        C354   1.484       .  S
O330       Cr339   1.995       .  S
O330        C338   1.261       .  A
O331       Cr339   1.976       .  S
O331        C332   1.261       .  A
C332        O333   1.267       .  A
C332        C392   1.483       .  S
O333       Cr340   2.010       .  S
O334       Cr340   2.016       .  S
O334        C335   1.267       .  A
C335        O336   1.260       .  A
C335        C434   1.467       .  S
O336       Cr341   1.975       .  S
O337       Cr341   1.979       .  S
O337        C338   1.256       .  A
C338        C345   1.470       .  S
Cr339       O342   1.768       .  S
Cr340       O342   1.784       .  S
Cr341       O342   1.770       .  S
C343        C363   1.485       .  S
C343        C344   1.409       .  A
C343        C508   1.422       .  A
C344        C345   1.397       .  A
C344        H349   1.084       .  S
C345        C506   1.389       .  A
C346        C505   1.389   1_554  A
C346        C347   1.413       .  A
C346        H350   1.085       .  S
C347        C406   1.494       .  S
C347        C348   1.410       .  A
C348        C503   1.422   1_554  A
C348        H351   1.083       .  S
C352        C372   1.483       .  S
C352        C353   1.417       .  A
C352        C517   1.418       .  A
C353        C354   1.412       .  A
C353        H358   1.083       .  S
C354        C515   1.403       .  A
C355        C514   1.403   1_554  A
C355        C356   1.384       .  A
C355        H359   1.084       .  S
C356        C415   1.467       .  S
C356        C357   1.391       .  A
C357        C512   1.418   1_554  A
C357        H360   1.084       .  S
O361      Cr1019   1.970   1_455  S
O361        C369   1.264       .  A
O362      Cr1019   1.976   1_455  S
O362        C363   1.258       .  A
C363        O364   1.269       .  A
O364      Cr1020   2.013   1_455  S
O365      Cr1020   2.035   1_455  S
O365        C366   1.271       .  A
C366        O367   1.257       .  A
C366        C465   1.494       .  S
O367      Cr1021   1.959   1_455  S
O368       Cr701   2.003   1_465  S
O370       Cr379   1.995       .  S
O370        C378   1.261       .  A
O371       Cr379   1.976       .  S
O371        C372   1.261       .  A
C372        O373   1.267       .  A
O373       Cr380   2.010       .  S
O374       Cr380   2.016       .  S
O374        C375   1.267       .  A
C375        O376   1.260       .  A
C375        C476   1.467       .  S
O376       Cr381   1.975       .  S
Cr379      O1001   1.970       .  S
Cr379      O1002   1.976       .  S
Cr379       O382   1.768       .  S
Cr380      O1004   2.013       .  S
Cr380      O1005   2.035       .  S
Cr380       O382   1.784       .  S
Cr381      O1007   1.959       .  S
Cr381       O688   2.003       .  S
Cr381       O382   1.770       .  S
C383        C544   1.422       .  A
C383        C388   1.409       .  A
C384        C543   1.422   1_554  A
C384        C385   1.410       .  A
C384        H389   1.083       .  S
C385        C446   1.494       .  S
C385        C386   1.413       .  A
C386        C547   1.389   1_554  A
C386        H390   1.085       .  S
C387        C546   1.389       .  A
C387        C388   1.397       .  A
C388        H391   1.084       .  S
C392        C393   1.417       .  A
C392        C557   1.418       .  A
C393        C394   1.412       .  A
C393        H398   1.083       .  S
C394        C555   1.403       .  A
C395        C554   1.403   1_554  A
C395        C396   1.384       .  A
C395        H399   1.084       .  S
C396        C455   1.467       .  S
C396        C397   1.392       .  A
C397        C552   1.418   1_554  A
C397        H400   1.084       .  S
O401       Cr419   1.970       .  S
O401        C409   1.264       .  A
O402       Cr419   1.976       .  S
O402        C403   1.258       .  A
C403        O404   1.269       .  A
C403        C463   1.485       .  S
O404       Cr420   2.013       .  S
O405       Cr420   2.035       .  S
O405        C406   1.271       .  A
C406        O407   1.257       .  A
O407       Cr421   1.959       .  S
O408       Cr421   2.003       .  S
O408        C409   1.263       .  A
C409        C436   1.484       .  S
O410       Cr419   1.995       .  S
O410        C418   1.261       .  A
O411       Cr419   1.976       .  S
O411        C412   1.261       .  A
C412        O413   1.267       .  A
C412        C472   1.483       .  S
O413       Cr420   2.010       .  S
O414       Cr420   2.016       .  S
O414        C415   1.267       .  A
C415        O416   1.260       .  A
O416       Cr421   1.975       .  S
O417       Cr421   1.979       .  S
O417        C418   1.256       .  A
C418        C427   1.470       .  S
Cr419       O422   1.768       .  S
Cr420       O422   1.784       .  S
Cr421       O422   1.770       .  S
C423        C443   1.485       .  S
C423        C424   1.422       .  A
C423        C428   1.409       .  A
C424        C425   1.410       .  A
C424        H429   1.083       .  S
C425        C426   1.413       .  A
C426        C427   1.389       .  A
C426        H430   1.085       .  S
C427        C428   1.397       .  A
C428        H431   1.084       .  S
C432        C452   1.483       .  S
C432        C433   1.418       .  A
C432        C437   1.417       .  A
C433        C434   1.391       .  A
C433        H438   1.084       .  S
C434        C435   1.384       .  A
C435        C436   1.403       .  A
C435        H439   1.084       .  S
C436        C437   1.412       .  A
C437        H440   1.083       .  S
O441       Cr459   1.970       .  S
O441        C449   1.264       .  A
O442       Cr459   1.976       .  S
O442        C443   1.258       .  A
C443        O444   1.269       .  A
O444       Cr460   2.013       .  S
O445       Cr460   2.035       .  S
O445        C446   1.271       .  A
C446        O447   1.258       .  A
O447       Cr461   1.959       .  S
O448       Cr461   2.003       .  S
O448        C449   1.263       .  A
O450      Cr1099   1.995       .  S
O450        C458   1.261       .  A
O451      Cr1099   1.976       .  S
O451        C452   1.261       .  A
C452        O453   1.267       .  A
O453      Cr1100   2.010       .  S
O454      Cr1100   2.016       .  S
O454        C455   1.267       .  A
C455        O456   1.260       .  A
O456      Cr1101   1.975       .  S
O457      Cr1101   1.979       .  S
O457        C458   1.256       .  A
Cr459      O1090   1.995       .  S
Cr459      O1091   1.976       .  S
Cr459       O462   1.768       .  S
Cr460      O1093   2.010       .  S
Cr460      O1094   2.016       .  S
Cr460       O462   1.784       .  S
Cr461      O1096   1.975       .  S
Cr461      O1097   1.979       .  S
Cr461       O462   1.770       .  S
C463        C464   1.422       .  A
C463        C468   1.409       .  A
C464        C465   1.410       .  A
C464        H469   1.083       .  S
C465        C466   1.413       .  A
C466        C467   1.389       .  A
C467        C468   1.397       .  A
C468        H471   1.084       .  S
C472        C473   1.417       .  A
C472        C477   1.418       .  A
C473        C474   1.412       .  A
C473        H478   1.083       .  S
C474        C475   1.403       .  A
C475        C476   1.384       .  A
C476        C477   1.392       .  A
C477        H480   1.084       .  S
O481       Cr499   1.970       .  S
O481        C489   1.264       .  A
O482       Cr499   1.976       .  S
O482        C483   1.258       .  A
C483        O484   1.269       .  A
C483        C543   1.485       .  S
O484       Cr500   2.013       .  S
O485       Cr500   2.035       .  S
O485        C486   1.271       .  A
C486        O487   1.258       .  A
C486        C585   1.494       .  S
O487       Cr501   1.959       .  S
O488       Cr501   2.003       .  S
O488        C489   1.263       .  A
C489        C514   1.484       .  S
O490       Cr499   1.995       .  S
O490        C498   1.261       .  A
O491       Cr499   1.976       .  S
O491        C492   1.261       .  A
C492        O493   1.267       .  A
C492        C552   1.483       .  S
O493       Cr500   2.010       .  S
O494       Cr500   2.016       .  S
O494        C495   1.267       .  A
C495        O496   1.260       .  A
C495        C594   1.467       .  S
O496       Cr501   1.975       .  S
O497       Cr501   1.979       .  S
O497        C498   1.256       .  A
C498        C505   1.470       .  S
Cr499       O502   1.768       .  S
Cr500       O502   1.784       .  S
Cr501       O502   1.770       .  S
C503        C523   1.485       .  S
C503        C504   1.409       .  A
C504        C505   1.397       .  A
C504        H509   1.084       .  S
C506        C507   1.413       .  A
C506        H510   1.085       .  S
C507        C566   1.494       .  S
C507        C508   1.410       .  A
C508        H511   1.083       .  S
C512        C532   1.483       .  S
C512        C513   1.417       .  A
C513        C514   1.412       .  A
C513        H518   1.083       .  S
C515        C516   1.384       .  A
C515        H519   1.084       .  S
C516        C575   1.467       .  S
C516        C517   1.391       .  A
C517        H520   1.084       .  S
O521      Cr1179   1.970   1_455  S
O521        C529   1.264       .  A
O522      Cr1179   1.976   1_455  S
O522        C523   1.258       .  A
C523        O524   1.269       .  A
O524      Cr1180   2.013   1_455  S
O525      Cr1180   2.035   1_455  S
O525        C526   1.271       .  A
C526        O527   1.257       .  A
C526        C625   1.494       .  S
O527      Cr1181   1.959   1_455  S
O528       Cr861   2.003   1_465  S
O530       Cr539   1.995       .  S
O530        C538   1.261       .  A
O531       Cr539   1.976       .  S
O531        C532   1.261       .  A
C532        O533   1.267       .  A
O533       Cr540   2.010       .  S
O534       Cr540   2.016       .  S
O534        C535   1.267       .  A
C535        O536   1.260       .  A
C535        C636   1.467       .  S
O536       Cr541   1.975       .  S
Cr539      O1161   1.970       .  S
Cr539      O1162   1.976       .  S
Cr539       O542   1.768       .  S
Cr540      O1164   2.013       .  S
Cr540      O1165   2.035       .  S
Cr540       O542   1.784       .  S
Cr541      O1167   1.959       .  S
Cr541       O848   2.003       .  S
Cr541       O542   1.770       .  S
C543        C548   1.409       .  A
C544        C545   1.410       .  A
C544        H549   1.083       .  S
C545        C606   1.494       .  S
C545        C546   1.413       .  A
C546        H550   1.085       .  S
C547        C548   1.397       .  A
C548        H551   1.084       .  S
C552        C553   1.417       .  A
C553        C554   1.412       .  A
C553        H558   1.083       .  S
C555        C556   1.384       .  A
C555        H559   1.084       .  S
C556        C615   1.467       .  S
C556        C557   1.392       .  A
C557        H560   1.084       .  S
O561       Cr579   1.970       .  S
O561        C569   1.264       .  A
O562       Cr579   1.976       .  S
O562        C563   1.258       .  A
C563        O564   1.269       .  A
C563        C623   1.485       .  S
O564       Cr580   2.013       .  S
O565       Cr580   2.035       .  S
O565        C566   1.271       .  A
C566        O567   1.257       .  A
O567       Cr581   1.959       .  S
O568       Cr581   2.003       .  S
O568        C569   1.263       .  A
C569        C596   1.484       .  S
O570       Cr579   1.995       .  S
O570        C578   1.261       .  A
O571       Cr579   1.976       .  S
O571        C572   1.261       .  A
C572        O573   1.267       .  A
C572        C632   1.483       .  S
O573       Cr580   2.010       .  S
O574       Cr580   2.016       .  S
O574        C575   1.267       .  A
C575        O576   1.260       .  A
O576       Cr581   1.975       .  S
O577       Cr581   1.979       .  S
O577        C578   1.256       .  A
C578        C587   1.470       .  S
Cr579       O582   1.768       .  S
Cr580       O582   1.784       .  S
Cr581       O582   1.770       .  S
C583        C603   1.485       .  S
C583        C584   1.422       .  A
C583        C588   1.409       .  A
C584        C585   1.410       .  A
C584        H589   1.083       .  S
C585        C586   1.413       .  A
C586        C587   1.389       .  A
C586        H590   1.085       .  S
C587        C588   1.397       .  A
C588        H591   1.084       .  S
C592        C612   1.483       .  S
C592        C593   1.418       .  A
C592        C597   1.417       .  A
C593        C594   1.391       .  A
C593        H598   1.084       .  S
C594        C595   1.384       .  A
C595        C596   1.403       .  A
C595        H599   1.084       .  S
C596        C597   1.412       .  A
C597        H600   1.083       .  S
O601       Cr619   1.970       .  S
O601        C609   1.264       .  A
O602       Cr619   1.976       .  S
O602        C603   1.258       .  A
C603        O604   1.269       .  A
O604       Cr620   2.013       .  S
O605       Cr620   2.035       .  S
O605        C606   1.271       .  A
C606        O607   1.258       .  A
O607       Cr621   1.959       .  S
O608       Cr621   2.003       .  S
O608        C609   1.263       .  A
O610      Cr1259   1.995       .  S
O610        C618   1.261       .  A
O611      Cr1259   1.976       .  S
O611        C612   1.261       .  A
C612        O613   1.267       .  A
O613      Cr1260   2.010       .  S
O614      Cr1260   2.016       .  S
O614        C615   1.267       .  A
C615        O616   1.260       .  A
O616      Cr1261   1.975       .  S
O617      Cr1261   1.979       .  S
O617        C618   1.256       .  A
Cr619      O1250   1.995       .  S
Cr619      O1251   1.976       .  S
Cr619       O622   1.768       .  S
Cr620      O1253   2.010       .  S
Cr620      O1254   2.016       .  S
Cr620       O622   1.784       .  S
Cr621      O1256   1.975       .  S
Cr621      O1257   1.979       .  S
Cr621       O622   1.770       .  S
C623        C624   1.422       .  A
C623        C628   1.409       .  A
C624        C625   1.410       .  A
C624        H629   1.083       .  S
C625        C626   1.413       .  A
C626        C627   1.389       .  A
C627        C628   1.397       .  A
C628        H631   1.084       .  S
C632        C633   1.417       .  A
C632        C637   1.418       .  A
C633        C634   1.412       .  A
C633        H638   1.083       .  S
C634        C635   1.403       .  A
C635        C636   1.384       .  A
C636        C637   1.392       .  A
C637        H640   1.084       .  S
O641       Cr659   1.970       .  S
O641        C649   1.264       .  A
O642       Cr659   1.976       .  S
O642        C643   1.258       .  A
C643        O644   1.269       .  A
C643        C703   1.485       .  S
O644       Cr660   2.013       .  S
O645       Cr660   2.035       .  S
O645        C646   1.271       .  A
C646        O647   1.258       .  A
C646        C745   1.494       .  S
O647       Cr661   1.959       .  S
O648       Cr661   2.003       .  S
O648        C649   1.263       .  A
C649        C674   1.484       .  S
O650       Cr659   1.995       .  S
O650        C658   1.261       .  A
O651       Cr659   1.976       .  S
O651        C652   1.261       .  A
C652        O653   1.267       .  A
C652        C712   1.483       .  S
O653       Cr660   2.010       .  S
O654       Cr660   2.016       .  S
O654        C655   1.267       .  A
C655        O656   1.260       .  A
C655        C754   1.467       .  S
O656       Cr661   1.975       .  S
O657       Cr661   1.979       .  S
O657        C658   1.256       .  A
C658        C665   1.470       .  S
Cr659       O662   1.768       .  S
Cr660       O662   1.784       .  S
Cr661       O662   1.770       .  S
C663        C683   1.485       .  S
C663        C664   1.409       .  A
C663        C828   1.422       .  A
C664        C665   1.397       .  A
C664        H669   1.084       .  S
C665        C826   1.389       .  A
C666        C825   1.389   1_554  A
C666        C667   1.413       .  A
C666        H670   1.085       .  S
C667        C726   1.494       .  S
C667        C668   1.410       .  A
C668        C823   1.422   1_554  A
C668        H671   1.083       .  S
C672        C692   1.483       .  S
C672        C673   1.417       .  A
C672        C837   1.418       .  A
C673        C674   1.412       .  A
C673        H678   1.083       .  S
C674        C835   1.403       .  A
C675        C834   1.403   1_554  A
C675        C676   1.384       .  A
C675        H679   1.084       .  S
C676        C735   1.467       .  S
C676        C677   1.391       .  A
C677        C832   1.418   1_554  A
C677        H680   1.084       .  S
O681        C689   1.264   1_545  A
O682        C683   1.258       .  A
C683        O684   1.269       .  A
O685        C686   1.271       .  A
C686        O687   1.257       .  A
C686        C785   1.494       .  S
O688       C1009   1.263       .  A
C689       O1008   1.263       .  A
C689       C1034   1.484       .  S
O690       Cr699   1.995       .  S
O690        C698   1.261       .  A
O691       Cr699   1.976       .  S
O691        C692   1.261       .  A
C692        O693   1.267       .  A
O693       Cr700   2.010       .  S
O694       Cr700   2.016       .  S
O694        C695   1.267       .  A
C695        O696   1.260       .  A
C695        C796   1.467       .  S
O696       Cr701   1.975       .  S
O697      Cr1021   1.979       .  S
O697       C1018   1.256       .  A
C698       O1017   1.256   1_545  A
C698       C1027   1.470   1_545  S
Cr699       O702   1.768       .  S
Cr700       O702   1.784       .  S
Cr701      O1017   1.979   1_545  S
Cr701       O702   1.770       .  S
C703        C864   1.422       .  A
C703        C708   1.409       .  A
C704        C863   1.422   1_554  A
C704        C705   1.410       .  A
C704        H709   1.083       .  S
C705        C766   1.494       .  S
C705        C706   1.413       .  A
C706        C867   1.389   1_554  A
C706        H710   1.085       .  S
C707       C1018   1.470       .  S
C707        C866   1.389       .  A
C707        C708   1.397       .  A
C708        H711   1.084       .  S
C712        C713   1.417       .  A
C712        C877   1.418       .  A
C713        C714   1.412       .  A
C713        H718   1.083       .  S
C714       C1009   1.484       .  S
C714        C875   1.403       .  A
C715        C874   1.403   1_554  A
C715        C716   1.384       .  A
C715        H719   1.084       .  S
C716        C775   1.467       .  S
C716        C717   1.392       .  A
C717        C872   1.418   1_554  A
C717        H720   1.084       .  S
O721       Cr739   1.970       .  S
O721        C729   1.264       .  A
O722       Cr739   1.976       .  S
O722        C723   1.258       .  A
C723        O724   1.269       .  A
C723        C783   1.485       .  S
O724       Cr740   2.013       .  S
O725       Cr740   2.035       .  S
O725        C726   1.271       .  A
C726        O727   1.257       .  A
O727       Cr741   1.959       .  S
O728       Cr741   2.003       .  S
O728        C729   1.263       .  A
C729        C756   1.484       .  S
O730       Cr739   1.995       .  S
O730        C738   1.261       .  A
O731       Cr739   1.976       .  S
O731        C732   1.261       .  A
C732        O733   1.267       .  A
C732        C792   1.483       .  S
O733       Cr740   2.010       .  S
O734       Cr740   2.016       .  S
O734        C735   1.267       .  A
C735        O736   1.260       .  A
O736       Cr741   1.975       .  S
O737       Cr741   1.979       .  S
O737        C738   1.256       .  A
C738        C747   1.470       .  S
Cr739       O742   1.768       .  S
Cr740       O742   1.784       .  S
Cr741       O742   1.770       .  S
C743        C763   1.485       .  S
C743        C744   1.422       .  A
C743        C748   1.409       .  A
C744        C745   1.410       .  A
C744        H749   1.083       .  S
C745        C746   1.413       .  A
C746        C747   1.389       .  A
C746        H750   1.085       .  S
C747        C748   1.397       .  A
C748        H751   1.084       .  S
C752        C772   1.483       .  S
C752        C753   1.418       .  A
C752        C757   1.417       .  A
C753        C754   1.391       .  A
C753        H758   1.084       .  S
C754        C755   1.384       .  A
C755        C756   1.403       .  A
C755        H759   1.084       .  S
C756        C757   1.412       .  A
C757        H760   1.083       .  S
O761       Cr779   1.970   1_655  S
O761        C769   1.264       .  A
O762       Cr779   1.976   1_655  S
O762        C763   1.258       .  A
C763        O764   1.269       .  A
O764       Cr780   2.013   1_655  S
O765       Cr780   2.035   1_655  S
O765        C766   1.271       .  A
C766        O767   1.258       .  A
O767       Cr781   1.959   1_655  S
O768       Cr781   2.003   1_655  S
O768        C769   1.263       .  A
C769       C1114   1.484       .  S
O770        C778   1.261       .  A
O771        C772   1.261       .  A
C772        O773   1.267       .  A
O774        C775   1.267       .  A
C775        O776   1.260       .  A
O777        C778   1.256       .  A
C778       C1107   1.470       .  S
Cr779       O782   1.768       .  S
Cr780       O782   1.784       .  S
Cr781       O782   1.770       .  S
C783        C784   1.422       .  A
C783        C788   1.409       .  A
C784        C785   1.410       .  A
C784        H789   1.083       .  S
C785        C786   1.413       .  A
C786        C787   1.389       .  A
C786       H1110   1.085   1_545  S
C787       C1098   1.470   1_545  S
C787        C788   1.397       .  A
C788        H791   1.084       .  S
H790       C1106   1.085       .  S
C792        C793   1.417       .  A
C792        C797   1.418       .  A
C793        C794   1.412       .  A
C793        H798   1.083       .  S
C794       C1089   1.484   1_545  S
C794        C795   1.403       .  A
C795        C796   1.384       .  A
C795       H1119   1.084       .  S
C796        C797   1.392       .  A
C797        H800   1.084       .  S
H799       C1115   1.084       .  S
O801       Cr819   1.970       .  S
O801        C809   1.264       .  A
O802       Cr819   1.976       .  S
O802        C803   1.258       .  A
C803        O804   1.269       .  A
C803        C863   1.485       .  S
O804       Cr820   2.013       .  S
O805       Cr820   2.035       .  S
O805        C806   1.271       .  A
C806        O807   1.258       .  A
C806        C905   1.494       .  S
O807       Cr821   1.959       .  S
O808       Cr821   2.003       .  S
O808        C809   1.263       .  A
C809        C834   1.484       .  S
O810       Cr819   1.995       .  S
O810        C818   1.261       .  A
O811       Cr819   1.976       .  S
O811        C812   1.261       .  A
C812        O813   1.267       .  A
C812        C872   1.483       .  S
O813       Cr820   2.010       .  S
O814       Cr820   2.016       .  S
O814        C815   1.267       .  A
C815        O816   1.260       .  A
C815        C914   1.467       .  S
O816       Cr821   1.975       .  S
O817       Cr821   1.979       .  S
O817        C818   1.256       .  A
C818        C825   1.470       .  S
Cr819       O822   1.768       .  S
Cr820       O822   1.784       .  S
Cr821       O822   1.770       .  S
C823        C843   1.485       .  S
C823        C824   1.409       .  A
C824        C825   1.397       .  A
C824        H829   1.084       .  S
C826        C827   1.413       .  A
C826        H830   1.085       .  S
C827        C886   1.494       .  S
C827        C828   1.410       .  A
C828        H831   1.083       .  S
C832        C852   1.483       .  S
C832        C833   1.417       .  A
C833        C834   1.412       .  A
C833        H838   1.083       .  S
C835        C836   1.384       .  A
C835        H839   1.084       .  S
C836        C895   1.467       .  S
C836        C837   1.391       .  A
C837        H840   1.084       .  S
O841        C849   1.264   1_545  A
O842        C843   1.258       .  A
C843        O844   1.269       .  A
O845        C846   1.271       .  A
C846        O847   1.257       .  A
C846        C945   1.494       .  S
O848       C1169   1.263       .  A
C849       O1168   1.263       .  A
C849       C1194   1.484       .  S
O850       Cr859   1.995       .  S
O850        C858   1.261       .  A
O851       Cr859   1.976       .  S
O851        C852   1.261       .  A
C852        O853   1.267       .  A
O853       Cr860   2.010       .  S
O854       Cr860   2.016       .  S
O854        C855   1.267       .  A
C855        O856   1.260       .  A
C855        C956   1.467       .  S
O856       Cr861   1.975       .  S
O857      Cr1181   1.979       .  S
O857       C1178   1.256       .  A
C858       O1177   1.256   1_545  A
C858       C1187   1.470   1_545  S
Cr859       O862   1.768       .  S
Cr860       O862   1.784       .  S
Cr861      O1177   1.979   1_545  S
Cr861       O862   1.770       .  S
C863        C868   1.409       .  A
C864        C865   1.410       .  A
C864        H869   1.083       .  S
C865        C926   1.494       .  S
C865        C866   1.413       .  A
C866        H870   1.085       .  S
C867       C1178   1.470       .  S
C867        C868   1.397       .  A
C868        H871   1.084       .  S
C872        C873   1.417       .  A
C873        C874   1.412       .  A
C873        H878   1.083       .  S
C874       C1169   1.484       .  S
C875        C876   1.384       .  A
C875        H879   1.084       .  S
C876        C935   1.467       .  S
C876        C877   1.392       .  A
C877        H880   1.084       .  S
O881       Cr899   1.970       .  S
O881        C889   1.264       .  A
O882       Cr899   1.976       .  S
O882        C883   1.258       .  A
C883        O884   1.269       .  A
C883        C943   1.485       .  S
O884       Cr900   2.013       .  S
O885       Cr900   2.035       .  S
O885        C886   1.271       .  A
C886        O887   1.257       .  A
O887       Cr901   1.959       .  S
O888       Cr901   2.003       .  S
O888        C889   1.263       .  A
C889        C916   1.484       .  S
O890       Cr899   1.995       .  S
O890        C898   1.261       .  A
O891       Cr899   1.976       .  S
O891        C892   1.261       .  A
C892        O893   1.267       .  A
C892        C952   1.483       .  S
O893       Cr900   2.010       .  S
O894       Cr900   2.016       .  S
O894        C895   1.267       .  A
C895        O896   1.260       .  A
O896       Cr901   1.975       .  S
O897       Cr901   1.979       .  S
O897        C898   1.256       .  A
C898        C907   1.470       .  S
Cr899       O902   1.768       .  S
Cr900       O902   1.784       .  S
Cr901       O902   1.770       .  S
C903        C923   1.485       .  S
C903        C904   1.422       .  A
C903        C908   1.409       .  A
C904        C905   1.410       .  A
C904        H909   1.083       .  S
C905        C906   1.413       .  A
C906        C907   1.389       .  A
C906        H910   1.085       .  S
C907        C908   1.397       .  A
C908        H911   1.084       .  S
C912        C932   1.483       .  S
C912        C913   1.418       .  A
C912        C917   1.417       .  A
C913        C914   1.391       .  A
C913        H918   1.084       .  S
C914        C915   1.384       .  A
C915        C916   1.403       .  A
C915        H919   1.084       .  S
C916        C917   1.412       .  A
C917        H920   1.083       .  S
O921       Cr939   1.970   1_655  S
O921        C929   1.264       .  A
O922       Cr939   1.976   1_655  S
O922        C923   1.258       .  A
C923        O924   1.269       .  A
O924       Cr940   2.013   1_655  S
O925       Cr940   2.035   1_655  S
O925        C926   1.271       .  A
C926        O927   1.258       .  A
O927       Cr941   1.959   1_655  S
O928       Cr941   2.003   1_655  S
O928        C929   1.263       .  A
C929       C1274   1.484       .  S
O930        C938   1.261       .  A
O931        C932   1.261       .  A
C932        O933   1.267       .  A
O934        C935   1.267       .  A
C935        O936   1.260       .  A
O937        C938   1.256       .  A
C938       C1267   1.470       .  S
Cr939       O942   1.768       .  S
Cr940       O942   1.784       .  S
Cr941       O942   1.770       .  S
C943        C944   1.422       .  A
C943        C948   1.409       .  A
C944        C945   1.410       .  A
C944        H949   1.083       .  S
C945        C946   1.413       .  A
C946        C947   1.389       .  A
C946       H1270   1.085   1_545  S
C947       C1258   1.470   1_545  S
C947        C948   1.397       .  A
C948        H951   1.084       .  S
H950       C1266   1.085       .  S
C952        C953   1.417       .  A
C952        C957   1.418       .  A
C953        C954   1.412       .  A
C953        H958   1.083       .  S
C954       C1249   1.484   1_545  S
C954        C955   1.403       .  A
C955        C956   1.384       .  A
C955       H1279   1.084       .  S
C956        C957   1.392       .  A
C957        H960   1.084       .  S
H959       C1275   1.084       .  S
O961       Cr979   1.970       .  S
O961        C969   1.264       .  A
O962       Cr979   1.976       .  S
O962        C963   1.258       .  A
C963        O964   1.269       .  A
C963       C1023   1.485       .  S
O964       Cr980   2.013       .  S
O965       Cr980   2.035       .  S
O965        C966   1.271       .  A
C966        O967   1.258       .  A
C966       C1065   1.494       .  S
O967       Cr981   1.959       .  S
O968       Cr981   2.003       .  S
O968        C969   1.263       .  A
C969        C994   1.484       .  S
O970       Cr979   1.995       .  S
O970        C978   1.261       .  A
O971       Cr979   1.976       .  S
O971        C972   1.261       .  A
C972        O973   1.267       .  A
C972       C1032   1.483       .  S
O973       Cr980   2.010       .  S
O974       Cr980   2.016       .  S
O974        C975   1.267       .  A
C975        O976   1.260       .  A
C975       C1074   1.467       .  S
O976       Cr981   1.975       .  S
O977       Cr981   1.979       .  S
O977        C978   1.256       .  A
C978        C985   1.470       .  S
Cr979       O982   1.768       .  S
Cr980       O982   1.784       .  S
Cr981       O982   1.770       .  S
C983       C1003   1.485       .  S
C983        C984   1.409       .  A
C983       C1148   1.422       .  A
C984        C985   1.397       .  A
C984        H989   1.084       .  S
C985       C1146   1.389       .  A
C986       C1145   1.389   1_554  A
C986        C987   1.413       .  A
C986        H990   1.085       .  S
C987       C1046   1.494       .  S
C987        C988   1.410       .  A
C988       C1143   1.422   1_554  A
C988        H991   1.083       .  S
C992       C1012   1.483       .  S
C992        C993   1.417       .  A
C992       C1157   1.418       .  A
C993        C994   1.412       .  A
C993        H998   1.083       .  S
C994       C1155   1.403       .  A
C995       C1154   1.403   1_554  A
C995        C996   1.384       .  A
C995        H999   1.084       .  S
C996       C1055   1.467       .  S
C996        C997   1.391       .  A
C997       C1152   1.418   1_554  A
C997       H1000   1.084       .  S
O1001      C1009   1.264       .  A
O1002      C1003   1.258       .  A
C1003      O1004   1.269       .  A
O1005      C1006   1.271       .  A
C1006      O1007   1.257       .  A
C1006      C1105   1.494       .  S
O1010     Cr1019   1.995       .  S
O1010      C1018   1.261       .  A
O1011     Cr1019   1.976       .  S
O1011      C1012   1.261       .  A
C1012      O1013   1.267       .  A
O1013     Cr1020   2.010       .  S
O1014     Cr1020   2.016       .  S
O1014      C1015   1.267       .  A
C1015      O1016   1.260       .  A
C1015      C1116   1.467       .  S
O1016     Cr1021   1.975       .  S
Cr1019     O1022   1.768       .  S
Cr1020     O1022   1.784       .  S
Cr1021     O1022   1.770       .  S
C1023      C1184   1.422       .  A
C1023      C1028   1.409       .  A
C1024      C1183   1.422   1_554  A
C1024      C1025   1.410       .  A
C1024      H1029   1.083       .  S
C1025      C1086   1.494       .  S
C1025      C1026   1.413       .  A
C1026      C1187   1.389   1_554  A
C1026      H1030   1.085       .  S
C1027      C1186   1.389       .  A
C1027      C1028   1.397       .  A
C1028      H1031   1.084       .  S
C1032      C1033   1.417       .  A
C1032      C1197   1.418       .  A
C1033      C1034   1.412       .  A
C1033      H1038   1.083       .  S
C1034      C1195   1.403       .  A
C1035      C1194   1.403   1_554  A
C1035      C1036   1.384       .  A
C1035      H1039   1.084       .  S
C1036      C1095   1.467       .  S
C1036      C1037   1.392       .  A
C1037      C1192   1.418   1_554  A
C1037      H1040   1.084       .  S
O1041     Cr1059   1.970       .  S
O1041      C1049   1.264       .  A
O1042     Cr1059   1.976       .  S
O1042      C1043   1.258       .  A
C1043      O1044   1.269       .  A
C1043      C1103   1.485       .  S
O1044     Cr1060   2.013       .  S
O1045     Cr1060   2.035       .  S
O1045      C1046   1.271       .  A
C1046      O1047   1.257       .  A
O1047     Cr1061   1.959       .  S
O1048     Cr1061   2.003       .  S
O1048      C1049   1.263       .  A
C1049      C1076   1.484       .  S
O1050     Cr1059   1.995       .  S
O1050      C1058   1.261       .  A
O1051     Cr1059   1.976       .  S
O1051      C1052   1.261       .  A
C1052      O1053   1.267       .  A
C1052      C1112   1.483       .  S
O1053     Cr1060   2.010       .  S
O1054     Cr1060   2.016       .  S
O1054      C1055   1.267       .  A
C1055      O1056   1.260       .  A
O1056     Cr1061   1.975       .  S
O1057     Cr1061   1.979       .  S
O1057      C1058   1.256       .  A
C1058      C1067   1.470       .  S
Cr1059     O1062   1.768       .  S
Cr1060     O1062   1.784       .  S
Cr1061     O1062   1.770       .  S
C1063      C1083   1.485       .  S
C1063      C1064   1.422       .  A
C1063      C1068   1.409       .  A
C1064      C1065   1.410       .  A
C1064      H1069   1.083       .  S
C1065      C1066   1.413       .  A
C1066      C1067   1.389       .  A
C1066      H1070   1.085       .  S
C1067      C1068   1.397       .  A
C1068      H1071   1.084       .  S
C1072      C1092   1.483       .  S
C1072      C1073   1.418       .  A
C1072      C1077   1.417       .  A
C1073      C1074   1.391       .  A
C1073      H1078   1.084       .  S
C1074      C1075   1.384       .  A
C1075      C1076   1.403       .  A
C1075      H1079   1.084       .  S
C1076      C1077   1.412       .  A
C1077      H1080   1.083       .  S
O1081     Cr1099   1.970   1_655  S
O1081      C1089   1.264       .  A
O1082     Cr1099   1.976   1_655  S
O1082      C1083   1.258       .  A
C1083      O1084   1.269       .  A
O1084     Cr1100   2.013   1_655  S
O1085     Cr1100   2.035   1_655  S
O1085      C1086   1.271       .  A
C1086      O1087   1.258       .  A
O1087     Cr1101   1.959   1_655  S
O1088     Cr1101   2.003   1_655  S
O1088      C1089   1.263       .  A
O1090      C1098   1.261       .  A
O1091      C1092   1.261       .  A
C1092      O1093   1.267       .  A
O1094      C1095   1.267       .  A
C1095      O1096   1.260       .  A
O1097      C1098   1.256       .  A
Cr1099     O1102   1.768       .  S
Cr1100     O1102   1.784       .  S
Cr1101     O1102   1.770       .  S
C1103      C1104   1.422       .  A
C1103      C1108   1.409       .  A
C1104      C1105   1.410       .  A
C1104      H1109   1.083       .  S
C1105      C1106   1.413       .  A
C1106      C1107   1.389       .  A
C1107      C1108   1.397       .  A
C1108      H1111   1.084       .  S
C1112      C1113   1.417       .  A
C1112      C1117   1.418       .  A
C1113      C1114   1.412       .  A
C1113      H1118   1.083       .  S
C1114      C1115   1.403       .  A
C1115      C1116   1.384       .  A
C1116      C1117   1.392       .  A
C1117      H1120   1.084       .  S
O1121     Cr1139   1.970       .  S
O1121      C1129   1.264       .  A
O1122     Cr1139   1.976       .  S
O1122      C1123   1.258       .  A
C1123      O1124   1.269       .  A
C1123      C1183   1.485       .  S
O1124     Cr1140   2.013       .  S
O1125     Cr1140   2.035       .  S
O1125      C1126   1.271       .  A
C1126      O1127   1.258       .  A
C1126      C1225   1.494       .  S
O1127     Cr1141   1.959       .  S
O1128     Cr1141   2.003       .  S
O1128      C1129   1.263       .  A
C1129      C1154   1.484       .  S
O1130     Cr1139   1.995       .  S
O1130      C1138   1.261       .  A
O1131     Cr1139   1.976       .  S
O1131      C1132   1.261       .  A
C1132      O1133   1.267       .  A
C1132      C1192   1.483       .  S
O1133     Cr1140   2.010       .  S
O1134     Cr1140   2.016       .  S
O1134      C1135   1.267       .  A
C1135      O1136   1.260       .  A
C1135      C1234   1.467       .  S
O1136     Cr1141   1.975       .  S
O1137     Cr1141   1.979       .  S
O1137      C1138   1.256       .  A
C1138      C1145   1.470       .  S
Cr1139     O1142   1.768       .  S
Cr1140     O1142   1.784       .  S
Cr1141     O1142   1.770       .  S
C1143      C1163   1.485       .  S
C1143      C1144   1.409       .  A
C1144      C1145   1.397       .  A
C1144      H1149   1.084       .  S
C1146      C1147   1.413       .  A
C1146      H1150   1.085       .  S
C1147      C1206   1.494       .  S
C1147      C1148   1.410       .  A
C1148      H1151   1.083       .  S
C1152      C1172   1.483       .  S
C1152      C1153   1.417       .  A
C1153      C1154   1.412       .  A
C1153      H1158   1.083       .  S
C1155      C1156   1.384       .  A
C1155      H1159   1.084       .  S
C1156      C1215   1.467       .  S
C1156      C1157   1.391       .  A
C1157      H1160   1.084       .  S
O1161      C1169   1.264       .  A
O1162      C1163   1.258       .  A
C1163      O1164   1.269       .  A
O1165      C1166   1.271       .  A
C1166      O1167   1.257       .  A
C1166      C1265   1.494       .  S
O1170     Cr1179   1.995       .  S
O1170      C1178   1.261       .  A
O1171     Cr1179   1.976       .  S
O1171      C1172   1.261       .  A
C1172      O1173   1.267       .  A
O1173     Cr1180   2.010       .  S
O1174     Cr1180   2.016       .  S
O1174      C1175   1.267       .  A
C1175      O1176   1.260       .  A
C1175      C1276   1.467       .  S
O1176     Cr1181   1.975       .  S
Cr1179     O1182   1.768       .  S
Cr1180     O1182   1.784       .  S
Cr1181     O1182   1.770       .  S
C1183      C1188   1.409       .  A
C1184      C1185   1.410       .  A
C1184      H1189   1.083       .  S
C1185      C1246   1.494       .  S
C1185      C1186   1.413       .  A
C1186      H1190   1.085       .  S
C1187      C1188   1.397       .  A
C1188      H1191   1.084       .  S
C1192      C1193   1.417       .  A
C1193      C1194   1.412       .  A
C1193      H1198   1.083       .  S
C1195      C1196   1.384       .  A
C1195      H1199   1.084       .  S
C1196      C1255   1.467       .  S
C1196      C1197   1.392       .  A
C1197      H1200   1.084       .  S
O1201     Cr1219   1.970       .  S
O1201      C1209   1.264       .  A
O1202     Cr1219   1.976       .  S
O1202      C1203   1.258       .  A
C1203      O1204   1.269       .  A
C1203      C1263   1.485       .  S
O1204     Cr1220   2.013       .  S
O1205     Cr1220   2.035       .  S
O1205      C1206   1.271       .  A
C1206      O1207   1.257       .  A
O1207     Cr1221   1.959       .  S
O1208     Cr1221   2.003       .  S
O1208      C1209   1.263       .  A
C1209      C1236   1.484       .  S
O1210     Cr1219   1.995       .  S
O1210      C1218   1.261       .  A
O1211     Cr1219   1.976       .  S
O1211      C1212   1.261       .  A
C1212      O1213   1.267       .  A
C1212      C1272   1.483       .  S
O1213     Cr1220   2.010       .  S
O1214     Cr1220   2.016       .  S
O1214      C1215   1.267       .  A
C1215      O1216   1.260       .  A
O1216     Cr1221   1.975       .  S
O1217     Cr1221   1.979       .  S
O1217      C1218   1.256       .  A
C1218      C1227   1.470       .  S
Cr1219     O1222   1.768       .  S
Cr1220     O1222   1.784       .  S
Cr1221     O1222   1.770       .  S
C1223      C1243   1.485       .  S
C1223      C1224   1.422       .  A
C1223      C1228   1.409       .  A
C1224      C1225   1.410       .  A
C1224      H1229   1.083       .  S
C1225      C1226   1.413       .  A
C1226      C1227   1.389       .  A
C1226      H1230   1.085       .  S
C1227      C1228   1.397       .  A
C1228      H1231   1.084       .  S
C1232      C1252   1.483       .  S
C1232      C1233   1.418       .  A
C1232      C1237   1.417       .  A
C1233      C1234   1.391       .  A
C1233      H1238   1.084       .  S
C1234      C1235   1.384       .  A
C1235      C1236   1.403       .  A
C1235      H1239   1.084       .  S
C1236      C1237   1.412       .  A
C1237      H1240   1.083       .  S
O1241     Cr1259   1.970   1_655  S
O1241      C1249   1.264       .  A
O1242     Cr1259   1.976   1_655  S
O1242      C1243   1.258       .  A
C1243      O1244   1.269       .  A
O1244     Cr1260   2.013   1_655  S
O1245     Cr1260   2.035   1_655  S
O1245      C1246   1.271       .  A
C1246      O1247   1.258       .  A
O1247     Cr1261   1.959   1_655  S
O1248     Cr1261   2.003   1_655  S
O1248      C1249   1.263       .  A
O1250      C1258   1.261       .  A
O1251      C1252   1.261       .  A
C1252      O1253   1.267       .  A
O1254      C1255   1.267       .  A
C1255      O1256   1.260       .  A
O1257      C1258   1.256       .  A
Cr1259     O1262   1.768       .  S
Cr1260     O1262   1.784       .  S
Cr1261     O1262   1.770       .  S
C1263      C1264   1.422       .  A
C1263      C1268   1.409       .  A
C1264      C1265   1.410       .  A
C1264      H1269   1.083       .  S
C1265      C1266   1.413       .  A
C1266      C1267   1.389       .  A
C1267      C1268   1.397       .  A
C1268      H1271   1.084       .  S
C1272      C1273   1.417       .  A
C1272      C1277   1.418       .  A
C1273      C1274   1.412       .  A
C1273      H1278   1.083       .  S
C1274      C1275   1.403       .  A
C1275      C1276   1.384       .  A
C1276      C1277   1.392       .  A
C1277      H1280   1.084       .  S
