geometry optimzed in LAMMPS
_audit_creation_date              2020-11-30 
_audit_creation_method            'lammps2cif' 
_symmetry_space_group_name_H-M    'P1' 
_symmetry_Int_Tables_number       1 
_symmetry_cell_setting            triclinic 
loop_ 
_symmetry_equiv_pos_as_xyz 
  x,y,z 
_cell_length_a                    37.6233648 
_cell_length_b                    37.478724076707245 
_cell_length_c                    38.30188174780815 
_cell_angle_alpha                 92.11067313539556 
_cell_angle_beta                  88.36598260686229 
_cell_angle_gamma                 120.01774320404301 
loop_ 
_atom_site_label 
_atom_site_type_symbol 
_atom_site_fract_x 
_atom_site_fract_y 
_atom_site_fract_z 
_atom_site_charge 
C1          C  0.21966360  0.20519438  0.15232766     0.79000
N2          N  0.21720491  0.19994680  0.11716710    -0.79300
C3          C  0.24658289  0.22875397  0.09631671     0.81500
N4          N  0.27932399  0.26287032  0.11095493    -0.79200
C5          C  0.28216475  0.26780631  0.14641401     0.81600
N6          N  0.25188652  0.23901195  0.16659896    -0.81000
C7          C  0.22065271  0.20850872  0.44351364     0.79000
N8          N  0.22656282  0.20863228  0.47859409    -0.79300
C9          C  0.26069219  0.24075662  0.49367931     0.81500
N10         N  0.28839081  0.27164235  0.47373902    -0.79200
C11         C  0.28285840  0.27170895  0.43910338     0.81600
N12         N  0.24879934  0.24020442  0.42414915    -0.81000
C13         C  0.25812866  0.47721055  0.14126703     0.79000
N14         N  0.25874511  0.47333113  0.10589900    -0.79300
C15         C  0.22761636  0.47120196  0.08686597     0.81500
N16         N  0.19535675  0.47191682  0.10355416    -0.79200
C17         C  0.19450151  0.47522393  0.13902878     0.81600
N18         N  0.22624651  0.47826900  0.15732210    -0.81000
C19         C  0.24220888  0.47384212  0.44141448     0.79000
N20         N  0.23647903  0.46832780  0.47641699    -0.79300
C21         C  0.20292150  0.46691806  0.49234210     0.81500
N22         N  0.17520713  0.47049497  0.47308819    -0.79200
C23         C  0.18066469  0.47557896  0.43813258     0.81600
N24         N  0.21439771  0.47755317  0.42259518    -0.81000
C25         C  0.48670809  0.23587717  0.14369261     0.79000
N26         N  0.49222706  0.23589218  0.10853380    -0.79300
C27         C  0.49491791  0.20441183  0.09215664     0.81500
N28         N  0.49265593  0.17334955  0.11129194    -0.79200
C29         C  0.48746017  0.17351363  0.14658564     0.81600
N30         N  0.48416061  0.20472043  0.16231595    -0.81000
C31         C  0.47858634  0.24383977  0.44183178     0.79000
N32         N  0.47305279  0.20838622  0.42625481    -0.79300
C33         C  0.47470288  0.17910475  0.44486905     0.81500
N34         N  0.48118929  0.18525229  0.47975595    -0.79200
C35         C  0.48612879  0.22034629  0.49595485     0.81600
N36         N  0.48536254  0.24995995  0.47682607    -0.81000
O37         O  0.39218801  0.00949342  0.26176094    -0.89400
C38         C  0.09898746  0.08766478  0.34981141     1.10700
O39         O  0.44057074  0.47642394  0.29472712    -1.37200
O40         O  0.07421442  0.09540139  0.26073352    -0.90900
O41         O  0.36026428  0.44427025  0.25396460    -0.91500
O42         O  0.44068779  0.43440980  0.21786478    -0.80400
O43         O  0.48313707  0.05630857  0.26764908    -1.02400
C44         C  0.06059278  0.46946207  0.22231274     1.20700
O45         O  0.48185226  0.43203553  0.29164956    -1.37300
Mn46       Mn  0.48215332  0.47465631  0.33226491     1.82100
O47         O  0.02864694  0.46793561  0.21151433    -0.79400
O48         O  0.10856837  0.06084961  0.25842003    -0.88800
C49         C  0.05908822  0.47571291  0.35086064     1.11800
C50         C  0.10255622  0.08937183  0.24849642     1.06500
O51         O  0.43822482  0.43113008  0.36655956    -0.80400
O52         O  0.02497366  0.01128969  0.29573973    -1.34100
O53         O  0.40217947  0.39632982  0.32362130    -0.99600
C54         C  0.48092649  0.35466558  0.23792595     1.05200
Mn55       Mn  0.08307766  0.01521229  0.29597736     1.48600
O56         O  0.44688594  0.34863956  0.25071829    -0.88800
Mn57       Mn  0.38249930  0.42238207  0.29250677     1.49600
O58         O  0.39144865  0.00931690  0.34027454    -0.92700
C59         C  0.48360053  0.05043057  0.23613565     1.18400
C60         C  0.36321633  0.47612167  0.34613654     1.10500
Mn61       Mn  0.48341602  0.47645280  0.25552461     1.81000
O62         O  0.06565835  0.47414138  0.31922781    -0.97800
Mn63       Mn  0.43656029  0.02988070  0.30046375     1.49300
C64         C  0.36792244  0.47928443  0.24349768     1.07000
Mn65       Mn  0.03910144  0.42497884  0.28683768     1.49900
C66         C  0.47940335  0.35480651  0.34069339     1.09900
O67         O  0.40415059  0.39723539  0.25895518    -1.03600
O68         O  0.10612918  0.05988289  0.33711064    -0.93300
C69         C  0.40965790  0.40186485  0.22764999     1.21200
O70         O  0.06471547  0.47070152  0.25379045    -1.04000
O71         O  0.07084965  0.09345511  0.33828931    -0.91400
O72         O  0.01861241  0.38260066  0.32714868    -0.91000
O73         O  0.35669830  0.44170114  0.33306612    -0.91000
Mn74       Mn  0.02744219  0.06907905  0.29799627     1.47900
O75         O  0.02662650  0.47491129  0.36034278    -0.79500
C76         C  0.40638155  0.40039441  0.35502738     1.14200
O77         O  0.48420178  0.01875270  0.22539971    -0.78200
O78         O  0.48240061  0.01900444  0.37384691    -0.77800
Mn79       Mn  0.42706605  0.37452743  0.29050643     1.51100
O80         O  0.02003421  0.37844258  0.24915488    -0.90200
O81         O  0.48187861  0.05433877  0.33265450    -0.97700
O82         O  0.44550890  0.34899256  0.32902829    -0.92700
C83         C  0.48045308  0.04950142  0.36387601     1.12000
C84         C  0.48317218  0.11616137  0.44236850    -0.14600
C85         C  0.47134811  0.14202073  0.42658773     0.07600
C86         C  0.95567009  0.12507597  0.39035785    -0.14600
C87         C  0.95564353  0.09282378  0.37126278    -0.14600
C88         C  0.47458681  0.07848354  0.38724863     0.07600
C89         C  0.48472002  0.08445307  0.42277624    -0.14600
H90         H  0.49278390  0.12147213  0.46934817     0.11600
H91         H  0.94229045  0.14147253  0.37869135     0.11600
H92         H  0.94242524  0.08557818  0.34541969     0.11600
H93         H  0.49542855  0.06594570  0.43488456     0.11600
C94         C  0.00860416  0.33961415  0.39182825    -0.14600
C95         C  0.47819057  0.32850312  0.36939384     0.07600
C96         C  0.44325447  0.28959110  0.37417167    -0.14600
C97         C  0.44300574  0.26285432  0.39881777    -0.14600
C98         C  0.47710019  0.27483886  0.42009323     0.07600
C99         C  0.00724192  0.31199950  0.41633462    -0.14600
H100        H  0.03068724  0.37216237  0.39498932     0.11600
H101        H  0.41667345  0.27903272  0.35776845     0.11600
H102        H  0.41643599  0.23227625  0.40074122     0.11600
H103        H  0.02859809  0.32361830  0.43781218     0.11600
C104        C  0.97973765  0.13532096  0.20119326    -0.14600
C105        C  0.48526168  0.14049026  0.16839182     0.07600
C106        C  0.49181586  0.10898302  0.15431512    -0.14600
C107        C  0.49077584  0.07905673  0.17604093    -0.14600
C108        C  0.48331787  0.08032909  0.21213196     0.07600
C109        C  0.97947589  0.10601089  0.22258844    -0.14600
H110        H  0.97612265  0.15979120  0.21353775     0.11600
H111        H  0.49817079  0.10771454  0.12669253     0.11600
H112        H  0.49639130  0.05538626  0.16475371     0.11600
H113        H  0.97578682  0.10906594  0.25050007     0.11600
C114        C  0.44773038  0.25784581  0.18311045    -0.14600
C115        C  0.48272610  0.26858210  0.16232463     0.07600
C116        C  0.02325221  0.28814942  0.18424967    -0.14600
C117        C  0.02301682  0.31798815  0.20681246    -0.14600
C118        C  0.48044247  0.32656112  0.20967984     0.07600
C119        C  0.44633652  0.28672595  0.20623919    -0.14600
H120        H  0.42203307  0.22659018  0.18232800     0.11600
H121        H  0.04826945  0.28174447  0.18531825     0.11600
H122        H  0.04806883  0.33416564  0.22495442     0.11600
H123        H  0.41940618  0.27715678  0.22278523     0.11600
C124        C  0.49744524  0.20192736  0.05365133    -0.17600
C125        C  0.49809506  0.23050461  0.03286557    -0.32800
H126        H  0.49656206  0.17459516  0.04214246     0.11400
H127        H  0.97661595  0.24545508  0.04512693     0.12000
C128        C  0.30474305  0.51223031  0.40527091    -0.14600
C129        C  0.27813535  0.47633149  0.42311382     0.07600
C130        C  0.28196364  0.44114593  0.41811469    -0.14600
C131        C  0.31062350  0.44121277  0.39385901    -0.14600
C132        C  0.33609958  0.47669724  0.37469997     0.07600
C133        C  0.33385095  0.51263538  0.38166933    -0.14600
H134        H  0.32244798  0.04011577  0.43605279     0.11600
H135        H  0.26117743  0.41298963  0.43134677     0.11600
H136        H  0.31198679  0.41321640  0.38932210     0.11600
H137        H  0.37226269  0.03977055  0.39348165     0.11600
C138        C  0.12663791  0.48221285  0.35993481    -0.14600
C139        C  0.09005237  0.47794549  0.37465352     0.07600
C140        C  0.08385653  0.47448308  0.41086297    -0.14600
C141        C  0.11369614  0.47440211  0.43185315    -0.14600
C142        C  0.14986202  0.47781023  0.41682138     0.07600
C143        C  0.15608561  0.48213165  0.38064859    -0.14600
H144        H  0.13259228  0.48517847  0.33197089     0.11600
H145        H  0.05596902  0.47112313  0.42270161     0.11600
H146        H  0.10815331  0.47105948  0.45977368     0.11600
H147        H  0.18347617  0.48492128  0.36811484     0.11600
C148        C  0.32633387  0.44864691  0.18909033    -0.14600
C149        C  0.34341928  0.48064011  0.21458075     0.07600
C150        C  0.33546236  0.51336996  0.21314092    -0.14600
C151        C  0.30916324  0.51300843  0.18797675    -0.14600
C152        C  0.29132571  0.48063801  0.16307839     0.07600
C153        C  0.30081123  0.44890250  0.16322488    -0.14600
H154        H  0.33216213  0.42314454  0.18954926     0.11600
H155        H  0.34806265  0.53831981  0.23248238     0.11600
H156        H  0.30174229  0.53748162  0.18853359     0.11600
H157        H  0.28674222  0.42329013  0.14460514     0.11600
C158        C  0.12446164  0.47039942  0.14233674    -0.14600
C159        C  0.15956083  0.47467116  0.15868463     0.07600
C160        C  0.16124492  0.47757889  0.19531826    -0.14600
C161        C  0.12903505  0.47575891  0.21514146    -0.14600
C162        C  0.09374547  0.47114398  0.19925800     0.07600
C163        C  0.09173075  0.46872878  0.16254088    -0.14600
H164        H  0.12221328  0.46811433  0.11413912     0.11600
H165        H  0.18753180  0.48100680  0.20913509     0.11600
H166        H  0.13200640  0.47800278  0.24330560     0.11600
H167        H  0.06497385  0.46534872  0.14958219     0.11600
C168        C  0.22981665  0.46886002  0.04825786    -0.17600
C169        C  0.20228223  0.47049478  0.02770969    -0.32800
H170        H  0.25521183  0.46653830  0.03653962     0.11400
H171        H  0.17711724  0.47318512  0.03948777     0.12000
C172        C  0.31014981  0.30432136  0.38172790    -0.14600
C173        C  0.31413048  0.30554842  0.41803255     0.07600
C174        C  0.34868057  0.33897746  0.43392140    -0.14600
C175        C  0.37883094  0.37037680  0.41371226    -0.14600
C176        C  0.37481860  0.36872974  0.37738611     0.07600
C177        C  0.34012774  0.33550793  0.36165581    -0.14600
H178        H  0.28405920  0.27906939  0.36867538     0.11600
H179        H  0.35260616  0.34081139  0.46194535     0.11600
H180        H  0.40528737  0.39561322  0.42638998     0.11600
H181        H  0.33616714  0.33335400  0.33360678     0.11600
C182        C  0.15045846  0.10598996  0.39812599    -0.14600
C183        C  0.12587602  0.11598744  0.37815861     0.07600
C184        C  0.12966534  0.15509771  0.38355025    -0.14600
C185        C  0.15899558  0.18429194  0.40647975    -0.14600
C186        C  0.18443962  0.17480165  0.42545891     0.07600
C187        C  0.17922845  0.13503799  0.42177813    -0.14600
H188        H  0.14828789  0.07614269  0.39471463     0.11600
H189        H  0.11147453  0.16401551  0.36860942     0.11600
H190        H  0.16288705  0.21495232  0.40846677     0.11600
H191        H  0.19905578  0.12727481  0.43561927     0.11600
C192        C  0.34374700  0.34099721  0.14890654    -0.14600
C193        C  0.31801424  0.30258583  0.16426324     0.07600
C194        C  0.32531656  0.29722468  0.19886389    -0.14600
C195        C  0.35577877  0.32936812  0.21824283    -0.14600
C196        C  0.38046285  0.36833763  0.20390355     0.07600
C197        C  0.37492410  0.37380790  0.16868328    -0.14600
H198        H  0.33893381  0.34600207  0.12221070     0.11600
H199        H  0.30693985  0.26799842  0.21147526     0.11600
H200        H  0.35954347  0.32362787  0.24503673     0.11600
H201        H  0.39358756  0.40351835  0.15693912     0.12100
C202        C  0.17362582  0.13252871  0.17031897    -0.14600
C203        C  0.18780854  0.17481970  0.17527466     0.07600
C204        C  0.17297121  0.18847720  0.20363719    -0.14600
C205        C  0.14417897  0.16028941  0.22672061    -0.14600
C206        C  0.13080541  0.11811999  0.22247843     0.07600
C207        C  0.14575387  0.10432996  0.19418811    -0.14600
H208        H  0.18512065  0.12155477  0.14871627     0.11600
H209        H  0.18369186  0.22102218  0.20789709     0.11600
H210        H  0.13329149  0.17156604  0.24856087     0.11600
H211        H  0.13578579  0.07187143  0.19055483     0.11600
C212        C  0.24152633  0.22206479  0.05810571    -0.17600
C213        C  0.26856738  0.24845570  0.03518522    -0.32800
H214        H  0.21421061  0.19462854  0.04864151     0.11400
H215        H  0.29590900  0.27586336  0.04465110     0.12000
C216        C  0.22506627  0.20713349  0.65007126     0.79000
N217        N  0.22054068  0.20080548  0.61512786    -0.79300
C218        C  0.24963331  0.22778419  0.59310040     0.81500
N219        N  0.28415176  0.26135311  0.60635727    -0.79200
C220        C  0.28902918  0.26728825  0.64166728     0.81600
N221        N  0.25906684  0.24018265  0.66308021    -0.81000
C222        C  0.22434634  0.20683656  0.94707637     0.79000
N223        N  0.22873348  0.20995902  0.98241666    -0.79300
C224        C  0.26267106  0.24263612  0.99699852     0.81500
N225        N  0.29164795  0.27168078  0.97614754    -0.79200
C226        C  0.28740659  0.26871799  0.94096685     0.81600
N227        N  0.25357940  0.23627610  0.92668837    -0.81000
C228        C  0.24747327  0.46683451  0.64490052     0.79000
N229        N  0.24790480  0.46121120  0.60974529    -0.79300
C230        C  0.21827334  0.46076755  0.58993057     0.81500
N231        N  0.18754652  0.46506494  0.60556786    -0.79200
C232        C  0.18682085  0.47048177  0.64079878     0.81600
N233        N  0.21723532  0.47185973  0.66012856    -0.81000
C234        C  0.23576501  0.46335730  0.93651626     0.79000
N235        N  0.23522090  0.46580772  0.97201151    -0.79300
C236        C  0.20452120  0.46892838  0.98910261     0.81500
N237        N  0.17512737  0.47058631  0.97044234    -0.79200
C238        C  0.17595471  0.46876648  0.93495013     0.81600
N239        N  0.20615067  0.46475125  0.91838775    -0.81000
C240        C  0.49832418  0.23856505  0.64500150     0.79000
N241        N  0.49488246  0.23455040  0.60977108    -0.79300
C242        C  0.49237609  0.20075794  0.59294284     0.81500
N243        N  0.49216304  0.17044518  0.61175181    -0.79200
C244        C  0.49523031  0.17427896  0.64717856     0.81600
N245        N  0.49859152  0.20860572  0.66336572    -0.81000
C246        C  0.48651788  0.24655765  0.93976930     0.79000
N247        N  0.48026828  0.21049194  0.92498184    -0.79300
C248        C  0.48173767  0.18163302  0.94427979     0.81500
N249        N  0.48875164  0.18874082  0.97906061    -0.79200
C250        C  0.49429421  0.22445144  0.99448627     0.81600
N251        N  0.49356157  0.25357694  0.97467464    -0.81000
O252        O  0.39250188  0.00464741  0.75954963    -0.89400
C253        C  0.10444524  0.09486041  0.85010486     1.10700
O254        O  0.43935534  0.47215935  0.79259304    -1.37200
O255        O  0.08116960  0.10557211  0.76105116    -0.90900
O256        O  0.35991145  0.43616766  0.74956406    -0.91500
O257        O  0.44490958  0.43386276  0.71559376    -0.80400
O258        O  0.48244457  0.05293620  0.76767350    -1.02400
C259        C  0.05655821  0.47476735  0.72094291     1.20700
O260        O  0.48559258  0.43291129  0.79014653    -1.37300
Mn261      Mn  0.48161840  0.47305214  0.83074072     1.82100
O262        O  0.02378211  0.47213567  0.71091885    -0.79400
O263        O  0.11100502  0.06675923  0.75694497    -0.88800
C264        C  0.05744282  0.47864147  0.84862432     1.11800
C265        C  0.10741007  0.09703287  0.74794944     1.06500
O266        O  0.43836254  0.42718370  0.86348687    -0.80400
O267        O  0.02801282  0.02157561  0.79662728    -1.34100
O268        O  0.40347046  0.39035786  0.82037349    -0.99600
C269        C  0.49304238  0.35913613  0.73744406     1.05200
Mn270      Mn  0.08491502  0.02291557  0.79545344     1.48600
O271        O  0.45751999  0.35193679  0.74714955    -0.88800
Mn272      Mn  0.38309442  0.41561164  0.78840632     1.49600
O273        O  0.38855992  0.00659734  0.83752044    -0.92700
C274        C  0.48382282  0.04745652  0.73623502     1.18400
C275        C  0.35781247  0.46446819  0.84260801     1.10500
Mn276      Mn  0.48489145  0.47650924  0.75437452     1.81000
O277        O  0.06213986  0.47739286  0.81714172    -0.97800
Mn278      Mn  0.43529648  0.02682663  0.79951491     1.49300
C279        C  0.36424009  0.47067914  0.74118816     1.07000
Mn280      Mn  0.03604058  0.43000818  0.78471800     1.49900
C281        C  0.48677138  0.35775325  0.83933029     1.09900
O282        O  0.40825687  0.39367979  0.75516679    -1.03600
O283        O  0.11080289  0.06743297  0.83576254    -0.93300
C284        C  0.41492368  0.39984317  0.72408025     1.21200
O285        O  0.06132958  0.47559548  0.75224155    -1.04000
O286        O  0.07788247  0.10299902  0.83892967    -0.91400
O287        O  0.01658681  0.38587191  0.82387212    -0.91000
O288        O  0.35315880  0.43155477  0.82763558    -0.91000
Mn289      Mn  0.03506010  0.08118320  0.79854177     1.47900
O290        O  0.02684591  0.48079502  0.85954799    -0.79500
C291        C  0.40767614  0.39512502  0.85194323     1.14200
O292        O  0.48297108  0.01504784  0.72572018    -0.78200
O293        O  0.48191074  0.01801118  0.87408561    -0.77800
Mn294      Mn  0.43305755  0.37332783  0.78706748     1.51100
O295        O  0.01406626  0.38403565  0.74517089    -0.90200
O296        O  0.47989276  0.05299079  0.83291844    -0.97700
O297        O  0.45299504  0.34916525  0.82541489    -0.92700
C298        C  0.47897618  0.04794992  0.86416206     1.12000
C299        C  0.49324797  0.12082620  0.94070381    -0.14600
C300        C  0.47635172  0.14337990  0.92695178     0.07600
C301        C  0.00666258  0.16072088  0.88902945    -0.14600
C302        C  0.00674173  0.12846623  0.87049485    -0.14600
C303        C  0.47461807  0.07724028  0.88811325     0.07600
C304        C  0.49239293  0.08784269  0.92133091    -0.14600
H305        H  0.50879213  0.12990802  0.96555716     0.11600
H306        H  0.01699133  0.18948485  0.87599509     0.11600
H307        H  0.01716464  0.13356596  0.84344404     0.11600
H308        H  0.50740141  0.07218486  0.93140389     0.11600
C309        C  0.01920437  0.33003034  0.87018447    -0.14600
C310        C  0.48559926  0.33103103  0.86749315     0.07600
C311        C  0.45319594  0.29010397  0.86878127    -0.14600
C312        C  0.45313151  0.26325386  0.89309829    -0.14600
C313        C  0.48477902  0.27693577  0.91743756     0.07600
C314        C  0.01980367  0.30376735  0.89492367    -0.14600
H315        H  0.04540650  0.34564890  0.85277640     0.11600
H316        H  0.42859923  0.27828595  0.85002123     0.11600
H317        H  0.42858696  0.23141791  0.89253173     0.11600
H318        H  0.04620621  0.29951552  0.89580763     0.11600
C319        C  0.98375597  0.14773248  0.70243419    -0.14600
C320        C  0.49353019  0.14136045  0.66879133     0.07600
C321        C  0.48710185  0.10355156  0.65421720    -0.14600
C322        C  0.48408643  0.07263195  0.67585799    -0.14600
C323        C  0.48723475  0.07909858  0.71231010     0.07600
C324        C  0.98459279  0.11933225  0.72420007    -0.14600
H325        H  0.98040218  0.17253613  0.71438942     0.11600
H326        H  0.48405226  0.09774672  0.62625859     0.11600
H327        H  0.47891059  0.04368613  0.66419705     0.11600
H328        H  0.98167537  0.12306972  0.75213027     0.11600
C329        C  0.46569523  0.27955487  0.66418584    -0.14600
C330        C  0.49979130  0.27388438  0.66397366     0.07600
C331        C  0.01137118  0.30916035  0.65919843    -0.14600
C332        C  0.01117834  0.33784657  0.68364784    -0.14600
C333        C  0.49662594  0.33239288  0.71000710     0.07600
C334        C  0.46393421  0.30838127  0.68731190    -0.14600
H335        H  0.43956203  0.26015511  0.64784975     0.11600
H336        H  0.03846843  0.31776894  0.64309708     0.11600
H337        H  0.03793063  0.36839088  0.68537936     0.11600
H338        H  0.43659993  0.31111535  0.68809187     0.11600
C339        C  0.48928596  0.19631395  0.55450236    -0.17600
C340        C  0.49110413  0.22591175  0.53426521    -0.32800
H341        H  0.48512398  0.16773900  0.54266086     0.11400
H342        H  0.99210425  0.25329085  0.53877190     0.12000
C343        C  0.30961410  0.49021730  0.92069726    -0.14600
C344        C  0.26820413  0.45995109  0.91688921     0.07600
C345        C  0.25715224  0.42940505  0.89048890    -0.14600
C346        C  0.28682115  0.42959560  0.86762185    -0.14600
C347        C  0.32793207  0.46118515  0.87001025     0.07600
C348        C  0.33924494  0.49116589  0.89710176    -0.14600
H349        H  0.28663861  0.02984978  0.89828359     0.11600
H350        H  0.22525697  0.40605241  0.88693786     0.11600
H351        H  0.27722620  0.40631263  0.84687529     0.11600
H352        H  0.33877578  0.03015484  0.85888465     0.11600
C353        C  0.12241446  0.47825648  0.85693786    -0.14600
C354        C  0.08756070  0.47752534  0.87194661     0.07600
C355        C  0.08201028  0.47464300  0.90839254    -0.14600
C356        C  0.11069284  0.47196731  0.92926190    -0.14600
C357        C  0.14522595  0.47205284  0.91391946     0.07600
C358        C  0.15071233  0.47552236  0.87753730    -0.14600
H359        H  0.12784859  0.48068435  0.82897102     0.11600
H360        H  0.05540505  0.47399831  0.92064180     0.11600
H361        H  0.10564713  0.46944764  0.95724931     0.11600
H362        H  0.17700909  0.47611089  0.86469621     0.11600
C363        C  0.31836863  0.43854465  0.68910636    -0.14600
C364        C  0.33763182  0.47129329  0.71370739     0.07600
C365        C  0.32904103  0.50372231  0.71347553    -0.14600
C366        C  0.30023836  0.50241607  0.69053017    -0.14600
C367        C  0.28033423  0.46933501  0.66662672     0.07600
C368        C  0.29031210  0.43788386  0.66537838    -0.14600
H369        H  0.32450355  0.41320952  0.68859533     0.11600
H370        H  0.34327852  0.52932706  0.73208977     0.11600
H371        H  0.29304874  0.52705762  0.69173311     0.11600
H372        H  0.27512913  0.41202974  0.64712411     0.11600
C373        C  0.11465701  0.45971856  0.64379027    -0.14600
C374        C  0.15376356  0.47520140  0.65856756     0.07600
C375        C  0.16088038  0.49368623  0.69204091    -0.14600
C376        C  0.12944284  0.49479787  0.71108610    -0.14600
C377        C  0.08974588  0.47750649  0.69736462     0.07600
C378        C  0.08276859  0.46085659  0.66311563    -0.14600
H379        H  0.10831250  0.44532363  0.61795866     0.11600
H380        H  0.19071746  0.50662231  0.70399731     0.11600
H381        H  0.13609330  0.50843693  0.73721159     0.11600
H382        H  0.05246174  0.44722587  0.65195879     0.11600
C383        C  0.22189656  0.45892091  0.55154924    -0.17600
C384        C  0.19662217  0.46339920  0.53045497    -0.32800
H385        H  0.24736993  0.45621286  0.54053248     0.11400
H386        H  0.17117904  0.46615930  0.54149726     0.12000
C387        C  0.31355009  0.29826217  0.88207972    -0.14600
C388        C  0.31872350  0.30102607  0.91842622     0.07600
C389        C  0.35374235  0.33515216  0.93289967    -0.14600
C390        C  0.38279414  0.36594086  0.91144948    -0.14600
C391        C  0.37738235  0.36311747  0.87516090     0.07600
C392        C  0.34250935  0.32889977  0.86073488    -0.14600
H393        H  0.28701764  0.27248620  0.87000249     0.11600
H394        H  0.35869178  0.33819931  0.96081701     0.11600
H395        H  0.40945882  0.39188147  0.92323661     0.11600
H396        H  0.33745133  0.32579100  0.83281981     0.11600
C397        C  0.15771006  0.10943365  0.89537230    -0.14600
C398        C  0.13006363  0.11933682  0.88033378     0.07600
C399        C  0.12945104  0.15484210  0.89270468    -0.14600
C400        C  0.15831341  0.18176959  0.91700216    -0.14600
C401        C  0.18768899  0.17330664  0.93001782     0.07600
C402        C  0.18642190  0.13634457  0.91992417    -0.14600
H403        H  0.15858117  0.08199351  0.88687751     0.11600
H404        H  0.10832740  0.16320060  0.88205164     0.11600
H405        H  0.15927594  0.21049417  0.92409889     0.11600
H406        H  0.20929445  0.12962952  0.92927931     0.11600
C407        C  0.34809183  0.34160945  0.64517320    -0.14600
C408        C  0.32653089  0.30138018  0.65817534     0.07600
C409        C  0.33816067  0.29397256  0.69038056    -0.14600
C410        C  0.36813750  0.32598320  0.71039382    -0.14600
C411        C  0.38806362  0.36667670  0.69886710     0.07600
C412        C  0.37886155  0.37418729  0.66545586    -0.14600
H413        H  0.33968974  0.34821024  0.62042692     0.11600
H414        H  0.32280814  0.26330421  0.70091802     0.11600
H415        H  0.37480387  0.31890378  0.73572004     0.11600
H416        H  0.39371476  0.40529699  0.65594773     0.12100
C417        C  0.17620539  0.13588906  0.66874993    -0.14600
C418        C  0.19347679  0.17858857  0.67396133     0.07600
C419        C  0.18153883  0.19415788  0.70296768    -0.14600
C420        C  0.15245328  0.16728897  0.72652513    -0.14600
C421        C  0.13597899  0.12463249  0.72187033     0.07600
C422        C  0.14806720  0.10899442  0.69300343    -0.14600
H423        H  0.18541855  0.12350248  0.64655400     0.11600
H424        H  0.19463816  0.22707903  0.70728196     0.11600
H425        H  0.14367728  0.17982396  0.74890945     0.11600
H426        H  0.13562221  0.07611496  0.68920673     0.11600
C427        C  0.24199493  0.22008493  0.55519047    -0.17600
C428        C  0.26883851  0.24478000  0.53146462    -0.32800
H429        H  0.21289036  0.19411438  0.54673600     0.11400
H430        H  0.29774423  0.27086552  0.54017439     0.12000
C431        C  0.22343069  0.71125321  0.14148079     0.79000
N432        N  0.22366406  0.71556476  0.10621099    -0.79300
C433        C  0.25566075  0.74915319  0.09092246     0.81500
N434        N  0.28636264  0.77800367  0.11088601    -0.79200
C435        C  0.28608892  0.77404457  0.14579102     0.81600
N436        N  0.25473937  0.74048432  0.16085653    -0.81000
C437        C  0.21561887  0.70922441  0.43394374     0.79000
N438        N  0.21453646  0.70320997  0.46864836    -0.79300
C439        C  0.24411994  0.73205629  0.48968443     0.81500
N440        N  0.27581341  0.76685334  0.47558303    -0.79200
C441        C  0.27712290  0.77278168  0.44055875     0.81600
N442        N  0.24661547  0.74394891  0.42020696    -0.81000
C443        C  0.25101794  0.96788583  0.14934496     0.79000
N444        N  0.25128620  0.96270638  0.11413160    -0.79300
C445        C  0.22043904  0.96066017  0.09485920     0.81500
N446        N  0.18893656  0.96320824  0.11114947    -0.79200
C447        C  0.18862546  0.96819832  0.14649917     0.81600
N448        N  0.21997391  0.97082419  0.16507081    -0.81000
C449        C  0.24544605  0.97677262  0.44886220     0.79000
N450        N  0.24516729  0.98215199  0.48420981    -0.79300
C451        C  0.21279171  0.98318589  0.50030552     0.81500
N452        N  0.18131994  0.97926505  0.48084295    -0.79200
C453        C  0.18157370  0.97407936  0.44560754     0.81600
N454        N  0.21364496  0.97261774  0.42996045    -0.81000
C455        C  0.49228432  0.74142544  0.14438807     0.79000
N456        N  0.49667195  0.74009259  0.10900621    -0.79300
C457        C  0.49839320  0.70761536  0.09330674     0.81500
N458        N  0.49600890  0.67720895  0.11306068    -0.79200
C459        C  0.49182022  0.67856229  0.14822582     0.81600
N460        N  0.48969215  0.71059370  0.16359861    -0.81000
C461        C  0.48913821  0.74595922  0.44064396     0.79000
N462        N  0.48321582  0.70994883  0.42618746    -0.79300
C463        C  0.48540724  0.68158905  0.44557426     0.81500
N464        N  0.49302152  0.68937766  0.48036723    -0.79200
C465        C  0.49843096  0.72542502  0.49533847     0.81600
N466        N  0.49682010  0.75372702  0.47527139    -0.81000
O467        O  0.39512996  0.51324542  0.25715591    -0.89400
C468        C  0.10152095  0.59396960  0.33451975     1.10700
O469        O  0.44081376  0.97562890  0.29874984    -1.37200
O470        O  0.07370819  0.59474882  0.24300306    -0.90900
O471        O  0.35871463  0.94059263  0.25994842    -0.91500
O472        O  0.44212876  0.93279114  0.22287623    -0.80400
O473        O  0.48575835  0.55825770  0.26627803    -1.02400
C474        C  0.05945609  0.97003013  0.23033990     1.20700
O475        O  0.48454116  0.93339091  0.29645478    -1.37300
Mn476      Mn  0.48365700  0.97607196  0.33626085     1.82100
O477        O  0.02747872  0.96880006  0.22017549    -0.79400
O478        O  0.11030373  0.56290688  0.24578313    -0.88800
C479        C  0.05564559  0.96768245  0.35795705     1.11800
C480        C  0.10320050  0.58935696  0.23268986     1.06500
O481        O  0.44082567  0.93254132  0.37177515    -0.80400
O482        O  0.02697994  0.51419256  0.28512381    -1.34100
O483        O  0.40426912  0.89583230  0.32962299    -0.99600
C484        C  0.48593687  0.85738828  0.24260903     1.05200
Mn485      Mn  0.08553088  0.51960071  0.28509260     1.48600
O486        O  0.45155164  0.85013474  0.25566622    -0.88800
Mn487      Mn  0.38282165  0.92114721  0.29855665     1.49600
O488        O  0.39142071  0.51047336  0.33509996    -0.92700
C489        C  0.48664072  0.55346205  0.23469425     1.18400
C490        C  0.36350821  0.97486124  0.35164146     1.10500
Mn491      Mn  0.48421833  0.97603984  0.25954292     1.81000
O492        O  0.06161073  0.96810460  0.32659430    -0.97800
Mn493      Mn  0.43787577  0.53155940  0.29730865     1.49300
C494        C  0.36522442  0.97492425  0.24895858     1.07000
Mn495      Mn  0.03789722  0.92221254  0.29250006     1.49900
C496        C  0.48528796  0.85767673  0.34472562     1.09900
O497        O  0.40428095  0.89487316  0.26411496    -1.03600
O498        O  0.10845285  0.56554437  0.32393639    -0.93300
C499        C  0.41062789  0.90063725  0.23247572     1.21200
O500        O  0.06354550  0.96943400  0.26167665    -1.04000
O501        O  0.07438059  0.59999473  0.32144874    -0.91400
O502        O  0.01736608  0.87680632  0.33097837    -0.91000
O503        O  0.35725007  0.94060792  0.33860106    -0.91000
Mn504      Mn  0.02933351  0.57160448  0.28339673     1.47900
O505        O  0.02411703  0.96838664  0.36848388    -0.79500
C506        C  0.40874066  0.90131892  0.36109988     1.14200
O507        O  0.48548062  0.52124203  0.22288268    -0.78200
O508        O  0.48167590  0.51685180  0.37090715    -0.77800
Mn509      Mn  0.43090752  0.87468455  0.29619489     1.51100
O510        O  0.01928965  0.87776560  0.25113238    -0.90200
O511        O  0.48186269  0.55438624  0.33126504    -0.97700
O512        O  0.45094321  0.85061819  0.33355175    -0.92700
C513        C  0.48017162  0.54800328  0.36228093     1.12000
C514        C  0.49601625  0.61978450  0.44076948    -0.14600
C515        C  0.47944218  0.64307446  0.42791530     0.07600
C516        C  0.97848625  0.64180896  0.37730126    -0.14600
C517        C  0.97830965  0.61067056  0.35646813    -0.14600
C518        C  0.47662769  0.57716631  0.38729560     0.07600
C519        C  0.49456580  0.58688736  0.42053444    -0.14600
H520        H  0.51171798  0.62819713  0.46554286     0.11600
H521        H  0.97316623  0.66440172  0.36526882     0.11600
H522        H  0.97312961  0.61030320  0.32874408     0.11600
H523        H  0.50926842  0.57062880  0.42996424     0.11600
C524        C  0.01873741  0.82811104  0.38562821    -0.14600
C525        C  0.48492176  0.83023572  0.37119778     0.07600
C526        C  0.45557169  0.78813572  0.36914226    -0.14600
C527        C  0.45667030  0.76095573  0.39228495    -0.14600
C528        C  0.48634234  0.77559208  0.41850699     0.07600
C529        C  0.01771564  0.80146797  0.41094955    -0.14600
H530        H  0.04815333  0.85042940  0.37470057     0.11600
H531        H  0.43272419  0.77602352  0.34879566     0.11600
H532        H  0.43455060  0.72836722  0.38951389     0.11600
H533        H  0.04616178  0.80317812  0.41819242     0.11600
C534        C  0.96759665  0.62682083  0.19137678    -0.14600
C535        C  0.48953741  0.64560904  0.16975309     0.07600
C536        C  0.49278874  0.61256411  0.15455180    -0.14600
C537        C  0.49164468  0.58219190  0.17547941    -0.14600
C538        C  0.48733255  0.58453128  0.21185196     0.07600
C539        C  0.96554678  0.59541177  0.21093297    -0.14600
H540        H  0.95621818  0.64601861  0.20301273     0.11600
H541        H  0.49651323  0.61030121  0.12656983     0.11600
H542        H  0.49447560  0.55717624  0.16329429     0.11600
H543        H  0.95290011  0.59150349  0.23720766     0.11600
C544        C  0.45211859  0.76524714  0.18048642    -0.14600
C545        C  0.48886924  0.77476109  0.16284861     0.07600
C546        C  0.02064276  0.80525128  0.16332088    -0.14600
C547        C  0.01996123  0.83313796  0.18850705    -0.14600
C548        C  0.48626235  0.83071646  0.21299742     0.07600
C549        C  0.45063929  0.79311611  0.20495118    -0.14600
H550        H  0.42496762  0.73533842  0.17648811     0.11600
H551        H  0.04827469  0.81417334  0.14791011     0.11600
H552        H  0.04690918  0.86336405  0.19160093     0.11600
H553        H  0.42208203  0.78418366  0.21891340     0.11600
C554        C  0.49990285  0.70260026  0.05501527    -0.17600
C555        C  0.50086923  0.72985736  0.03288798    -0.32800
H556        H  0.49807450  0.67430979  0.04479362     0.11400
H557        H  0.98823331  0.75108766  0.04015059     0.12000
C558        C  0.31638226  0.01120911  0.42362592    -0.14600
C559        C  0.27927450  0.97493387  0.43015899     0.07600
C560        C  0.27161898  0.93806706  0.41307130    -0.14600
C561        C  0.29998551  0.93765857  0.38887912    -0.14600
C562        C  0.33619836  0.97442304  0.38064654     0.07600
C563        C  0.34458599  0.01101132  0.39899919    -0.14600
H564        H  0.30182227  0.53949552  0.40856704     0.11600
H565        H  0.24282743  0.90989122  0.41737883     0.11600
H566        H  0.29254851  0.90887897  0.37540670     0.11600
H567        H  0.35310983  0.54053053  0.36752065     0.11600
C568        C  0.11852189  0.96336295  0.36681958    -0.14600
C569        C  0.08588997  0.96721213  0.38153779     0.07600
C570        C  0.08383637  0.97171639  0.41796625    -0.14600
C571        C  0.11454936  0.97338102  0.43910654    -0.14600
C572        C  0.14770051  0.97049231  0.42409765     0.07600
C573        C  0.14891560  0.96497338  0.38773721    -0.14600
H574        H  0.12095394  0.95954791  0.33884116     0.11600
H575        H  0.05899240  0.97465509  0.42999504     0.11600
H576        H  0.11261698  0.97748811  0.46708608     0.11600
H577        H  0.17369396  0.96236678  0.37517314     0.11600
C578        C  0.32308837  0.94291680  0.19512541    -0.14600
C579        C  0.33933574  0.97477314  0.22077498     0.07600
C580        C  0.32905345  0.00591166  0.22048100    -0.14600
C581        C  0.30140075  0.00421465  0.19617938    -0.14600
C582        C  0.28445966  0.97205573  0.17105829     0.07600
C583        C  0.29616017  0.94189352  0.17004610    -0.14600
H584        H  0.33076288  0.91863120  0.19481276     0.11600
H585        H  0.34097871  0.03061642  0.24005953     0.11600
H586        H  0.29245320  0.02758729  0.19746473     0.11600
H587        H  0.28292016  0.91657246  0.15107784     0.11600
C588        C  0.11714686  0.95945139  0.15071534    -0.14600
C589        C  0.15548199  0.97151541  0.16562659     0.07600
C590        C  0.16206845  0.98557578  0.20062269    -0.14600
C591        C  0.13102581  0.98598760  0.22068459    -0.14600
C592        C  0.09223480  0.97252928  0.20653531     0.07600
C593        C  0.08564045  0.96002458  0.17109712    -0.14600
H594        H  0.11118131  0.94851796  0.12378623     0.11600
H595        H  0.19125967  0.99579523  0.21299370     0.11600
H596        H  0.13736952  0.99639763  0.24774212     0.11600
H597        H  0.05594150  0.94946711  0.15959039     0.11600
C598        C  0.22348141  0.95889045  0.05635104    -0.17600
C599        C  0.19612374  0.96041101  0.03565648    -0.32800
H600        H  0.25014210  0.95877455  0.04489528     0.11400
H601        H  0.16962493  0.96079590  0.04720282     0.12000
C602        C  0.30375558  0.81993168  0.39058940    -0.14600
C603        C  0.31082996  0.80967928  0.42356525     0.07600
C604        C  0.35043014  0.83278615  0.43779917    -0.14600
C605        C  0.38266244  0.86411360  0.41837620    -0.14600
C606        C  0.37554710  0.87233889  0.38451703     0.07600
C607        C  0.33555580  0.85051515  0.37136612    -0.14600
H608        H  0.27359532  0.80344978  0.37900615     0.11600
H609        H  0.35680797  0.82555892  0.46316295     0.11600
H610        H  0.41325775  0.88055804  0.42910537     0.11600
H611        H  0.32886687  0.85651554  0.34561162     0.11600
C612        C  0.14365475  0.60875962  0.38805259    -0.14600
C613        C  0.12728376  0.62224427  0.36247311     0.07600
C614        C  0.13791312  0.66382849  0.36231719    -0.14600
C615        C  0.16628714  0.69201388  0.38607646    -0.14600
C616        C  0.18335014  0.67877461  0.41107432     0.07600
C617        C  0.17113227  0.63685228  0.41258292    -0.14600
H618        H  0.13564600  0.57670949  0.38872477     0.11600
H619        H  0.12572847  0.67487901  0.34278711     0.11600
H620        H  0.17531528  0.72428746  0.38471104     0.11600
H621        H  0.18417832  0.62622528  0.43170872     0.11600
C622        C  0.35266361  0.84080482  0.15183952    -0.14600
C623        C  0.31922802  0.80626685  0.16721474     0.07600
C624        C  0.31707360  0.80306523  0.20355143    -0.14600
C625        C  0.34719733  0.83385621  0.22408271    -0.14600
C626        C  0.38040182  0.86874939  0.20897143     0.07600
C627        C  0.38319534  0.87196100  0.17262424    -0.14600
H628        H  0.35511116  0.84395285  0.12373793     0.11600
H629        H  0.29190760  0.77701331  0.21628088     0.11600
H630        H  0.34406489  0.83018981  0.25219632     0.11600
H631        H  0.40844829  0.89838080  0.16047402     0.12100
C632        C  0.20209868  0.65465804  0.18302072    -0.14600
C633        C  0.19074649  0.67509702  0.15965326     0.07600
C634        C  0.14940300  0.66478923  0.15833792    -0.14600
C635        C  0.12032669  0.63596043  0.18141333    -0.14600
C636        C  0.13207322  0.61639472  0.20551710     0.07600
C637        C  0.17305929  0.62525010  0.20531459    -0.14600
H638        H  0.23390187  0.66248304  0.18479283     0.11600
H639        H  0.14010940  0.68070319  0.14095418     0.11600
H640        H  0.08894599  0.62969726  0.18099946     0.11600
H641        H  0.18320723  0.61099563  0.22368906     0.11600
C642        C  0.25947363  0.75531094  0.05290857    -0.17600
C643        C  0.23220062  0.72897104  0.02982594    -0.32800
H644        H  0.28665050  0.78269109  0.04358986     0.11400
H645        H  0.20481511  0.70167851  0.03894615     0.12000
C646        C  0.22246133  0.71209206  0.63889921     0.79000
N647        N  0.22560433  0.71556772  0.60350524    -0.79300
C648        C  0.25847909  0.74899197  0.58899792     0.81500
N649        N  0.28747864  0.77856817  0.60992470    -0.79200
C650        C  0.28450272  0.77523285  0.64510060     0.81600
N651        N  0.25196721  0.74184754  0.65934349    -0.81000
C652        C  0.21208013  0.71274321  0.93526453     0.79000
N653        N  0.20803457  0.70806816  0.97028029    -0.79300
C654        C  0.23812031  0.73545194  0.99178645     0.81500
N655        N  0.27317628  0.76730904  0.97790876    -0.79200
C656        C  0.27761276  0.77148684  0.94258690     0.81600
N657        N  0.24667573  0.74426309  0.92175102    -0.81000
C658        C  0.25093067  0.97283539  0.65331615     0.79000
N659        N  0.25803719  0.98003406  0.61866258    -0.79300
C660        C  0.23034787  0.98324124  0.59889233     0.81500
N661        N  0.19571952  0.98021163  0.61427566    -0.79200
C662        C  0.18864766  0.97329686  0.64913722     0.81600
N663        N  0.21627854  0.96927377  0.66816279    -0.81000
C664        C  0.24004288  0.97303863  0.94551927     0.79000
N665        N  0.23482024  0.96627401  0.98044955    -0.79300
C666        C  0.20164864  0.96465894  0.99745195     0.81500
N667        N  0.17368457  0.96910572  0.97931751    -0.79200
C668        C  0.17858408  0.97549988  0.94450603     0.81600
N669        N  0.21196954  0.97775235  0.92797277    -0.81000
C670        C  0.49372842  0.74256463  0.64506646     0.79000
N671        N  0.49880056  0.74203539  0.60975485    -0.79300
C672        C  0.50003373  0.70955432  0.59360156     0.81500
N673        N  0.49641486  0.67821551  0.61289515    -0.79200
C674        C  0.49143425  0.67871592  0.64806145     0.81600
N675        N  0.48983608  0.71085231  0.66382439    -0.81000
C676        C  0.48834793  0.74276014  0.94004418     0.79000
N677        N  0.48035663  0.70598751  0.92574706    -0.79300
C678        C  0.48095506  0.67686000  0.94533845     0.81500
N679        N  0.48888072  0.68469198  0.98013323    -0.79200
C680        C  0.49617003  0.72154102  0.99483918     0.81600
N681        N  0.49624656  0.75050949  0.97457337    -0.81000
O682        O  0.38928542  0.50466733  0.75627084    -0.89400
C683        C  0.10132457  0.59843988  0.83350290     1.10700
O684        O  0.44010955  0.97311199  0.80006652    -1.37200
O685        O  0.07267922  0.59941094  0.74216792    -0.90900
O686        O  0.35495008  0.93633805  0.76519754    -0.91500
O687        O  0.44039390  0.92958377  0.72544271    -0.80400
O688        O  0.48021315  0.55468164  0.76520776    -1.02400
C689        C  0.05797494  0.97471610  0.73130797     1.20700
O690        O  0.48445751  0.93203840  0.79806488    -1.37300
Mn691      Mn  0.48342743  0.97497028  0.83745074     1.82100
O692        O  0.02841047  0.97811442  0.72115209    -0.79400
O693        O  0.10875888  0.56713210  0.74530356    -0.88800
C694        C  0.05549412  0.97761183  0.86019556     1.11800
C695        C  0.10174231  0.59348974  0.73169292     1.06500
O696        O  0.44141456  0.93163236  0.87378563    -0.80400
O697        O  0.02531468  0.51980142  0.78466004    -1.34100
O698        O  0.40557711  0.89357377  0.83202995    -0.99600
C699        C  0.48626425  0.85759433  0.74326581     1.05200
Mn700      Mn  0.08297565  0.52287857  0.78459269     1.48600
O701        O  0.45163964  0.85044657  0.75574414    -0.88800
Mn702      Mn  0.38268721  0.91793366  0.80192424     1.49600
O703        O  0.38607410  0.50021871  0.83428336    -0.92700
C704        C  0.48233482  0.55073686  0.73361684     1.18400
C705        C  0.36310778  0.97334323  0.85231000     1.10500
Mn706      Mn  0.48332226  0.97335438  0.76086266     1.81000
O707        O  0.06185818  0.97643183  0.82845352    -0.97800
Mn708      Mn  0.43250429  0.52492126  0.79621995     1.49300
C709        C  0.36265952  0.96958815  0.75079585     1.07000
Mn710      Mn  0.03359487  0.92869377  0.79491100     1.49900
C711        C  0.48657841  0.85661905  0.84504460     1.09900
O712        O  0.40349313  0.89327176  0.76706757    -1.03600
O713        O  0.10667367  0.56859079  0.82400845    -0.93300
C714        C  0.40832221  0.89846709  0.73577364     1.21200
O715        O  0.06232285  0.97484121  0.76271057    -1.04000
O716        O  0.07524440  0.60560815  0.81990256    -0.91400
O717        O  0.00973289  0.88569495  0.83413748    -0.91000
O718        O  0.35932003  0.93852011  0.84358373    -0.91000
Mn719      Mn  0.02920168  0.57812639  0.78291722     1.47900
O720        O  0.02319511  0.97710886  0.87001272    -0.79500
C721        C  0.41101609  0.89856927  0.86340282     1.14200
O722        O  0.48434007  0.52014132  0.72176503    -0.78200
O723        O  0.47737973  0.51296732  0.86956311    -0.77800
Mn724      Mn  0.43069673  0.87349579  0.79710981     1.51100
O725        O  0.01305955  0.88273973  0.75677283    -0.90200
O726        O  0.47641230  0.55022571  0.83021740    -0.97700
O727        O  0.45223974  0.84924482  0.83341793    -0.92700
C728        C  0.47491779  0.54365983  0.86119807     1.12000
C729        C  0.48920410  0.61361281  0.94066291    -0.14600
C730        C  0.47365115  0.63778088  0.92776592     0.07600
C731        C  0.98238382  0.65217741  0.87860436    -0.14600
C732        C  0.98330794  0.62161008  0.85773329    -0.14600
C733        C  0.47058701  0.57209743  0.88656416     0.07600
C734        C  0.48764676  0.58085430  0.92013626    -0.14600
H735        H  0.50447818  0.62140289  0.96562219     0.11600
H736        H  0.98021057  0.67624006  0.86572423     0.11600
H737        H  0.98164521  0.62325540  0.82969443     0.11600
H738        H  0.50179721  0.56407314  0.92958248     0.11600
C739        C  0.99875660  0.84418673  0.89825413    -0.14600
C740        C  0.48639641  0.82897757  0.87151197     0.07600
C741        C  0.45226328  0.78916014  0.87442650    -0.14600
C742        C  0.45289249  0.76137054  0.89717943    -0.14600
C743        C  0.48711045  0.77325895  0.91811963     0.07600
C744        C  0.99821924  0.81628943  0.92176948    -0.14600
H745        H  0.02174566  0.87651952  0.90096317     0.11600
H746        H  0.42555842  0.77896620  0.85824821     0.11600
H747        H  0.42675002  0.73042740  0.89829639     0.11600
H748        H  0.02109466  0.82733804  0.94205673     0.11600
C749        C  0.00444521  0.65085964  0.68702174    -0.14600
C750        C  0.48746770  0.64464710  0.66921465     0.07600
C751        C  0.49143994  0.61205542  0.65393291    -0.14600
C752        C  0.48913329  0.58089829  0.67460725    -0.14600
C753        C  0.48281844  0.58188432  0.71083997     0.07600
C754        C  0.00482672  0.62077079  0.70694585    -0.14600
H755        H  0.02003302  0.68233892  0.69716074     0.11600
H756        H  0.49687515  0.61088801  0.62611303     0.11600
H757        H  0.49290018  0.55646325  0.66236614     0.11600
H758        H  0.02056986  0.63005318  0.73171526     0.11600
C759        C  0.45339693  0.76551021  0.68166601    -0.14600
C760        C  0.49010784  0.77559113  0.66375190     0.07600
C761        C  0.00526431  0.78294558  0.69731539    -0.14600
C762        C  0.00771549  0.81422676  0.71957339    -0.14600
C763        C  0.48687891  0.83121309  0.71367149     0.07600
C764        C  0.45160562  0.79319586  0.70605468    -0.14600
H765        H  0.42653622  0.73532622  0.67790816     0.11600
H766        H  0.02665574  0.77191085  0.70032886     0.11600
H767        H  0.03057923  0.82640067  0.73990930     0.11600
H768        H  0.42313678  0.78381842  0.72030810     0.11600
C769        C  0.50215418  0.70561637  0.55522828    -0.17600
C770        C  0.50284755  0.73318482  0.53350285    -0.32800
H771        H  0.50071523  0.67766408  0.54457079     0.11400
H772        H  0.97632375  0.66444436  0.53716329     0.12000
C773        C  0.29527703  0.00650844  0.90094826    -0.14600
C774        C  0.27573889  0.97590117  0.92592261     0.07600
C775        C  0.28750721  0.94597421  0.92868542    -0.14600
C776        C  0.31676390  0.94540896  0.90534617    -0.14600
C777        C  0.33537571  0.97544826  0.87959893     0.07600
C778        C  0.32513711  0.00665733  0.87841925    -0.14600
H779        H  0.31861552  0.51440595  0.94058154     0.11600
H780        H  0.27253646  0.92184950  0.94756439     0.11600
H781        H  0.32422231  0.92110085  0.90694675     0.11600
H782        H  0.37078994  0.51580914  0.89951241     0.11600
C783        C  0.12339513  0.98444781  0.86819590    -0.14600
C784        C  0.08680683  0.97950701  0.88354721     0.07600
C785        C  0.08126368  0.97547987  0.91980180    -0.14600
C786        C  0.11154529  0.97506320  0.94007362    -0.14600
C787        C  0.14752262  0.97875323  0.92427529     0.07600
C788        C  0.15324545  0.98410689  0.88816621    -0.14600
H789        H  0.12906478  0.98813173  0.84023627     0.11600
H790        H  0.05351757  0.97182129  0.93218754     0.11600
H791        H  0.10643931  0.97109858  0.96799003     0.11600
H792        H  0.18051409  0.98733175  0.87503399     0.11600
C793        C  0.29352961  0.93690535  0.72327177    -0.14600
C794        C  0.33506303  0.96781290  0.72325192     0.07600
C795        C  0.34932330  0.99856592  0.69807385    -0.14600
C796        C  0.32230805  0.99895938  0.67393532    -0.14600
C797        C  0.28046843  0.96928971  0.67523682     0.07600
C798        C  0.26635140  0.93802790  0.69980892    -0.14600
H799        H  0.28170307  0.91294306  0.74242852     0.11600
H800        H  0.38125605  0.02267581  0.69741309     0.11600
H801        H  0.33369787  0.02350317  0.65534176     0.11600
H802        H  0.23412104  0.91484478  0.70118235     0.11600
C803        C  0.12851557  0.98639093  0.65353758    -0.14600
C804        C  0.15169894  0.97014140  0.66723756     0.07600
C805        C  0.14093379  0.95249118  0.70033095    -0.14600
C806        C  0.10953713  0.95290084  0.72003234    -0.14600
C807        C  0.08754205  0.97074594  0.70733902     0.07600
C808        C  0.09648323  0.98656126  0.67345921    -0.14600
H809        H  0.13606559  0.00022810  0.62810766     0.11600
H810        H  0.15746581  0.93901477  0.71157336     0.11600
H811        H  0.10301864  0.93986435  0.74579575     0.11600
H812        H  0.07999544  0.00053779  0.66306322     0.11600
C813        C  0.23724569  0.98694953  0.56060564    -0.17600
C814        C  0.20948541  0.98602911  0.53878721    -0.32800
H815        H  0.26471606  0.98776367  0.55002747     0.11400
H816        H  0.18190884  0.98493187  0.54943544     0.12000
C817        C  0.32440865  0.79581666  0.89113035    -0.14600
C818        C  0.31581034  0.80358936  0.92557271     0.07600
C819        C  0.34220039  0.84228598  0.94141928    -0.14600
C820        C  0.37489578  0.87337150  0.92209613    -0.14600
C821        C  0.38143963  0.86588854  0.88684561     0.07600
C822        C  0.35657604  0.82633653  0.87216439    -0.14600
H823        H  0.30546596  0.76615310  0.87827548     0.11600
H824        H  0.33644990  0.84906682  0.96801406     0.11600
H825        H  0.39370639  0.90356620  0.93410503     0.11600
H826        H  0.36119160  0.81916964  0.84533778     0.11600
C827        C  0.13685429  0.61262716  0.89063257    -0.14600
C828        C  0.12727980  0.62706691  0.86105991     0.07600
C829        C  0.14335481  0.66952560  0.85742329    -0.14600
C830        C  0.17025848  0.69737539  0.88218800    -0.14600
C831        C  0.18037719  0.68309652  0.91150616     0.07600
C832        C  0.16280705  0.64055471  0.91607123    -0.14600
H833        H  0.12439245  0.57987843  0.89392445     0.11600
H834        H  0.13628090  0.68118873  0.83474615     0.11600
H835        H  0.18359773  0.73012639  0.87827000     0.11600
H836        H  0.17059270  0.62907631  0.93845351     0.11600
C837        C  0.35065946  0.84219816  0.65359396    -0.14600
C838        C  0.31647137  0.80737088  0.66777959     0.07600
C839        C  0.31303158  0.80323244  0.70413741    -0.14600
C840        C  0.34294623  0.83298948  0.72583484    -0.14600
C841        C  0.37718151  0.86773217  0.71181444     0.07600
C842        C  0.38081871  0.87216707  0.67547664    -0.14600
H843        H  0.35418444  0.84629092  0.62562957     0.11600
H844        H  0.28721345  0.77690871  0.71600189     0.11600
H845        H  0.33919739  0.82861955  0.75378215     0.11600
H846        H  0.40687324  0.89866851  0.66403171     0.12100
C847        C  0.19432733  0.64667736  0.67084907    -0.14600
C848        C  0.18790422  0.67663361  0.65603562     0.07600
C849        C  0.15140319  0.67692178  0.66378550    -0.14600
C850        C  0.12248102  0.64869256  0.68716414    -0.14600
C851        C  0.12957926  0.61964467  0.70331648     0.07600
C852        C  0.16532426  0.61820724  0.69398042    -0.14600
H853        H  0.22272799  0.64653966  0.66573720     0.11600
H854        H  0.14632772  0.70042011  0.65326289     0.11600
H855        H  0.09536525  0.65076609  0.69364407     0.11600
H856        H  0.17188757  0.59635314  0.70580160     0.11600
C857        C  0.26389973  0.75447537  0.55089369    -0.17600
C858        C  0.23965049  0.72545348  0.52767952    -0.32800
H859        H  0.28892499  0.78358750  0.54175342     0.11400
H860        H  0.21461233  0.69633006  0.53677930     0.12000
C861        C  0.71629190  0.20486259  0.14717492     0.79000
N862        N  0.71551895  0.19769471  0.11212013    -0.79300
C863        C  0.74590199  0.22574228  0.09130083     0.81500
N864        N  0.77743717  0.26080452  0.10587420    -0.79200
C865        C  0.77816599  0.26790250  0.14097648     0.81600
N866        N  0.74739672  0.23987185  0.16110407    -0.81000
C867        C  0.72487023  0.21184372  0.44432436     0.79000
N868        N  0.72923420  0.21325598  0.47959183    -0.79300
C869        C  0.76335332  0.24497123  0.49489074     0.81500
N870        N  0.79285215  0.27464964  0.47478226    -0.79200
C871        C  0.78873893  0.27323809  0.43964235     0.81600
N872        N  0.75451085  0.24193410  0.42473755    -0.81000
C873        C  0.74905035  0.47210374  0.14655745     0.79000
N874        N  0.75447145  0.47635820  0.11162571    -0.79300
C875        C  0.72687164  0.47974213  0.09209265     0.81500
N876        N  0.69382396  0.47998519  0.10798454    -0.79200
C877        C  0.68882695  0.47657777  0.14341544     0.81600
N878        N  0.71642234  0.47216265  0.16207491    -0.81000
C879        C  0.74887913  0.48018863  0.43778407     0.79000
N880        N  0.74571842  0.47915621  0.47348453    -0.79300
C881        C  0.71270483  0.47902700  0.48977034     0.81500
N882        N  0.68340925  0.47918941  0.47050259    -0.79200
C883        C  0.68608478  0.47991767  0.43538429     0.81600
N884        N  0.71900508  0.48072245  0.41908733    -0.81000
C885        C  0.98784069  0.23005948  0.14210499     0.79000
N886        N  0.98290879  0.22606381  0.10710479    -0.79300
C887        C  0.97995995  0.19249037  0.08966516     0.81500
N888        N  0.98101676  0.16223294  0.10777665    -0.79200
C889        C  0.98520274  0.16592411  0.14322485     0.81600
N890        N  0.98904974  0.20021673  0.15984354    -0.81000
C891        C  0.98144205  0.23935225  0.43478941     0.79000
N892        N  0.97640093  0.20347197  0.42061267    -0.79300
C893        C  0.97843570  0.17528721  0.44046913     0.81500
N894        N  0.98499251  0.18308525  0.47536029    -0.79200
C895        C  0.98941168  0.21881198  0.49008147     0.81600
N896        N  0.98796142  0.24696901  0.46962231    -0.81000
O897        O  0.89204264  0.00108175  0.25588453    -0.89400
C898        C  0.60131499  0.09540028  0.35075318     1.10700
O899        O  0.94132074  0.47016326  0.28609224    -1.37200
O900        O  0.57461517  0.10312389  0.26231269    -0.90900
O901        O  0.85540066  0.43378305  0.25303958    -0.91500
O902        O  0.94203827  0.42491975  0.21215728    -0.80400
O903        O  0.98269273  0.04857213  0.26402295    -1.02400
C904        C  0.55757389  0.47562375  0.22791427     1.20700
O905        O  0.98475140  0.42826278  0.28601554    -1.37300
Mn906      Mn  0.98419294  0.47243675  0.32396540     1.82100
O907        O  0.52657754  0.47651947  0.21799277    -0.79400
O908        O  0.60773234  0.06738011  0.25810003    -0.88800
C909        C  0.55603903  0.47359570  0.35603174     1.11800
C910        C  0.60160806  0.09593340  0.24852216     1.06500
O911        O  0.94204859  0.43000879  0.36032214    -0.80400
O912        O  0.52616650  0.01915034  0.29831099    -1.34100
O913        O  0.90577325  0.39120753  0.31904172    -0.99600
C914        C  0.98685614  0.35202627  0.23476129     1.05200
Mn915      Mn  0.58416505  0.02310707  0.29670420     1.48600
O916        O  0.95182746  0.34708270  0.24361819    -0.88800
Mn917      Mn  0.88332760  0.41568244  0.28910294     1.49600
O918        O  0.88855909  0.00080610  0.33460805    -0.92700
C919        C  0.98384833  0.04311905  0.23247907     1.18400
C920        C  0.86633265  0.47303648  0.34067019     1.10500
Mn921      Mn  0.98488662  0.46912091  0.24742302     1.81000
O922        O  0.56157269  0.47367158  0.32419081    -0.97800
Mn923      Mn  0.93515712  0.02183064  0.29584683     1.49300
C924        C  0.86273163  0.46703216  0.23917011     1.07000
Mn925      Mn  0.53496522  0.42661093  0.28979451     1.49900
C926        C  0.98381262  0.35287867  0.33603193     1.09900
O927        O  0.90347654  0.39034409  0.25395708    -1.03600
O928        O  0.60853237  0.06820588  0.33696779    -0.93300
C929        C  0.90855103  0.39565423  0.22256387     1.21200
O930        O  0.56103242  0.47446276  0.25923089    -1.04000
O931        O  0.57282786  0.10126178  0.34033929    -0.91400
O932        O  0.51407259  0.38156068  0.32833798    -0.91000
O933        O  0.86083554  0.43763169  0.33112655    -0.91000
Mn934      Mn  0.52879296  0.07691434  0.30067248     1.47900
O935        O  0.52433362  0.47345589  0.36726776    -0.79500
C936        C  0.91128034  0.39707376  0.35029122     1.14200
O937        O  0.98434434  0.01133034  0.22185288    -0.78200
O938        O  0.98030793  0.01117879  0.37024979    -0.77800
Mn939      Mn  0.93040275  0.37022545  0.28455529     1.51100
O940        O  0.51536422  0.38272089  0.24923624    -0.90200
O941        O  0.97969807  0.04692871  0.32929239    -0.97700
O942        O  0.95050026  0.34482280  0.32161368    -0.92700
C943        C  0.97826878  0.04172974  0.36053083     1.12000
C944        C  0.99004936  0.11404448  0.43769434    -0.14600
C945        C  0.97397232  0.13706733  0.42331161     0.07600
C946        C  0.45870495  0.13392615  0.39174500    -0.14600
C947        C  0.46037621  0.10276288  0.37240590    -0.14600
C948        C  0.97370686  0.07121569  0.38445902     0.07600
C949        C  0.98990009  0.08121549  0.41834276    -0.14600
H950        H  0.00430999  0.12254848  0.46310277     0.11600
H951        H  0.44859998  0.15251839  0.37890181     0.11600
H952        H  0.45139740  0.09839021  0.34526219     0.11600
H953        H  0.00412163  0.06512767  0.42906767     0.11600
C954        C  0.51203102  0.34102043  0.39142933    -0.14600
C955        C  0.98173562  0.32506642  0.36332445     0.07600
C956        C  0.95327995  0.28279529  0.36002867    -0.14600
C957        C  0.95279655  0.25523961  0.38377406    -0.14600
C958        C  0.97994854  0.26946154  0.41195417     0.07600
C959        C  0.51129103  0.31452165  0.41684832    -0.14600
H960        H  0.53926098  0.37098881  0.38863200     0.11600
H961        H  0.93236628  0.27080890  0.33823927     0.11600
H962        H  0.93140546  0.22261728  0.37989859     0.11600
H963        H  0.53812129  0.32418729  0.43272739     0.11600
C964        C  0.47711761  0.14099042  0.20440692    -0.14600
C965        C  0.98439245  0.13317464  0.16472662     0.07600
C966        C  0.98837120  0.10025870  0.15019763    -0.14600
C967        C  0.98817485  0.07058399  0.17190995    -0.14600
C968        C  0.98386745  0.07335365  0.20841948     0.07600
C969        C  0.47620413  0.11144391  0.22589747    -0.14600
H970        H  0.47164048  0.16448555  0.21630767     0.11600
H971        H  0.99203297  0.09769619  0.12224102     0.11600
H972        H  0.99159991  0.04570919  0.16022109     0.11600
H973        H  0.47005088  0.11315920  0.25352971     0.11600
C974        C  0.95837447  0.27410110  0.16033412    -0.14600
C975        C  0.99061026  0.26562938  0.16139083     0.07600
C976        C  0.51595998  0.30898884  0.16405858    -0.14600
C977        C  0.51502694  0.33775773  0.18789448    -0.14600
C978        C  0.98945845  0.32479003  0.20748659     0.07600
C979        C  0.95755802  0.30327485  0.18357234    -0.14600
H980        H  0.93280328  0.25655033  0.14293910     0.11600
H981        H  0.54345900  0.31750991  0.14855018     0.11600
H982        H  0.54172308  0.36832458  0.18999457     0.11600
H983        H  0.93156095  0.30824601  0.18346763     0.11600
C984        C  0.97731838  0.18977413  0.05115177    -0.17600
C985        C  0.97693833  0.21933754  0.03213383    -0.32800
H986        H  0.97739416  0.16354375  0.03811733     0.11400
H987        H  0.49914695  0.25794228  0.04430068     0.12000
C988        C  0.80732082  0.51335498  0.39554465    -0.14600
C989        C  0.78403343  0.48100466  0.41831378     0.07600
C990        C  0.79015235  0.44690106  0.41739784    -0.14600
C991        C  0.81766585  0.44444542  0.39292639    -0.14600
C992        C  0.84010537  0.47643150  0.36931302     0.07600
C993        C  0.83537375  0.51142180  0.37180643    -0.14600
H994        H  0.80667346  0.03199129  0.41733323     0.11600
H995        H  0.77199937  0.42118085  0.43422300     0.11600
H996        H  0.82061869  0.41712258  0.39189801     0.11600
H997        H  0.85717636  0.03257338  0.37532508     0.11600
C998        C  0.62133767  0.47382189  0.36041923    -0.14600
C999        C  0.58793197  0.47439446  0.37759847     0.07600
C1000       C  0.58693157  0.47689826  0.41401789    -0.14600
C1001       C  0.61916176  0.47895590  0.43288455    -0.14600
C1002       C  0.65260690  0.47859835  0.41551378     0.07600
C1003       C  0.65329157  0.47599780  0.37908945    -0.14600
H1004       H  0.62314724  0.47187299  0.33211998     0.11600
H1005       H  0.56171457  0.47750108  0.42768745     0.11600
H1006       H  0.61784007  0.48088302  0.46113899     0.11600
H1007       H  0.67835006  0.47546121  0.36495330     0.11600
C1008       C  0.79185904  0.43910911  0.21802331    -0.14600
C1009       C  0.83415605  0.46529668  0.21313766     0.07600
C1010       C  0.84852890  0.49194841  0.18484848    -0.14600
C1011       C  0.82075948  0.49284118  0.16199439    -0.14600
C1012       C  0.77842428  0.46805252  0.16792848     0.07600
C1013       C  0.76414293  0.44096885  0.19587855    -0.14600
H1014       H  0.78024166  0.41859997  0.23989084     0.11600
H1015       H  0.88113926  0.51238680  0.18075655     0.11600
H1016       H  0.83224689  0.51410303  0.14065060     0.11600
H1017       H  0.73152429  0.42158467  0.20076822     0.11600
C1018       C  0.61984997  0.47473561  0.14701450    -0.14600
C1019       C  0.65486556  0.47837232  0.16301765     0.07600
C1020       C  0.65754167  0.48289732  0.19960283    -0.14600
C1021       C  0.62612019  0.48242834  0.21972769    -0.14600
C1022       C  0.59052225  0.47754675  0.20428232     0.07600
C1023       C  0.58780441  0.47431581  0.16756186    -0.14600
H1024       H  0.61690587  0.47143962  0.11887469     0.11600
H1025       H  0.68406073  0.48654576  0.21317815     0.11600
H1026       H  0.62983490  0.48566225  0.24781959     0.11600
H1027       H  0.56084630  0.47082276  0.15489480     0.11600
C1028       C  0.73394399  0.48272281  0.05389944    -0.17600
C1029       C  0.70647226  0.48110322  0.03169902    -0.32800
H1030       H  0.76244267  0.48539516  0.04376516     0.11400
H1031       H  0.67786477  0.47813518  0.04190010     0.12000
C1032       C  0.81402042  0.30501416  0.38169808    -0.14600
C1033       C  0.82069663  0.30563631  0.41759259     0.07600
C1034       C  0.85784879  0.33720800  0.43172281    -0.14600
C1035       C  0.88767641  0.36746797  0.41017771    -0.14600
C1036       C  0.88073927  0.36642394  0.37426033     0.07600
C1037       C  0.84358236  0.33489002  0.36038255    -0.14600
H1038       H  0.78583169  0.28139589  0.36985898     0.11600
H1039       H  0.86393874  0.33845829  0.45932891     0.11600
H1040       H  0.91612264  0.39133989  0.42146833     0.11600
H1041       H  0.83712068  0.33326402  0.33280361     0.11600
C1042       C  0.65237796  0.11111553  0.39847032    -0.14600
C1043       C  0.62843853  0.12259484  0.37924779     0.07600
C1044       C  0.63312918  0.16191335  0.38555560    -0.14600
C1045       C  0.66301409  0.19007991  0.40858200    -0.14600
C1046       C  0.68802936  0.17921453  0.42656677     0.07600
C1047       C  0.68176084  0.13914892  0.42213714    -0.14600
H1048       H  0.64930847  0.08094685  0.39436893     0.11600
H1049       H  0.61532133  0.17179118  0.37118977     0.11600
H1050       H  0.66780639  0.22106066  0.41129443     0.11600
H1051       H  0.70121974  0.13040147  0.43535123     0.11600
C1052       C  0.85118656  0.32782952  0.14395088    -0.14600
C1053       C  0.81135392  0.30531486  0.15832417     0.07600
C1054       C  0.80361459  0.31637389  0.19190403    -0.14600
C1055       C  0.83520897  0.34669150  0.21180980    -0.14600
C1056       C  0.87550385  0.36748834  0.19863028     0.07600
C1057       C  0.88317676  0.35896899  0.16403443    -0.14600
H1058       H  0.85795917  0.32006888  0.11804883     0.11600
H1059       H  0.77316075  0.30042948  0.20352936     0.11600
H1060       H  0.82816404  0.35302002  0.23814193     0.11600
H1061       H  0.91404084  0.37481631  0.15325223     0.12100
C1062       C  0.66580691  0.13326147  0.16589499    -0.14600
C1063       C  0.68357273  0.17609367  0.17065036     0.07600
C1064       C  0.67238107  0.19197086  0.20006149    -0.14600
C1065       C  0.64443243  0.16561760  0.22462815    -0.14600
C1066       C  0.62804449  0.12295679  0.22075576     0.07600
C1067       C  0.63864930  0.10683681  0.19115033    -0.14600
H1068       H  0.67427010  0.12041304  0.14355202     0.11600
H1069       H  0.68570469  0.22493278  0.20427897     0.11600
H1070       H  0.63683426  0.17864954  0.24738310     0.11600
H1071       H  0.62616586  0.07392089  0.18776682     0.11600
C1072       C  0.74210640  0.21950579  0.05293540    -0.17600
C1073       C  0.76959282  0.24757489  0.03114291    -0.32800
H1074       H  0.71470366  0.19292749  0.04257302     0.11400
H1075       H  0.79681322  0.27419134  0.04172768     0.12000
C1076       C  0.71222151  0.20555953  0.64839279     0.79000
N1077       N  0.71254509  0.19969971  0.61336548    -0.79300
C1078       C  0.74312921  0.22869910  0.59348823     0.81500
N1079       N  0.77413610  0.26345361  0.60906165    -0.79200
C1080       C  0.77390836  0.26906125  0.64443404     0.81600
N1081       N  0.74257925  0.24003742  0.66353108    -0.81000
C1082       C  0.72356452  0.21796193  0.94248593     0.79000
N1083       N  0.72965685  0.21553983  0.97700107    -0.79300
C1084       C  0.76321026  0.24679672  0.99324031     0.81500
N1085       N  0.79072094  0.27973496  0.97473631    -0.79200
C1086       C  0.78500500  0.28230613  0.94036332     0.81600
N1087       N  0.75114215  0.25144526  0.92454895    -0.81000
C1088       C  0.74785101  0.47124224  0.64358465     0.79000
N1089       N  0.75393438  0.47608219  0.60881514    -0.79300
C1090       C  0.72566898  0.47762169  0.58881416     0.81500
N1091       N  0.69113704  0.47544048  0.60414355    -0.79200
C1092       C  0.68526254  0.47091282  0.63950756     0.81600
N1093       N  0.71375421  0.46852001  0.65854895    -0.81000
C1094       C  0.75049822  0.48827689  0.94152321     0.79000
N1095       N  0.74649759  0.48518378  0.97704284    -0.79300
C1096       C  0.71284794  0.48351024  0.99344224     0.81500
N1097       N  0.68351008  0.48405192  0.97431587    -0.79200
C1098       C  0.68709844  0.48678550  0.93922000     0.81600
N1099       N  0.72076852  0.48917950  0.92301132    -0.81000
C1100       C  0.98257621  0.23585846  0.63938712     0.79000
N1101       N  0.98804147  0.23515410  0.60416320    -0.79300
C1102       C  0.99230774  0.20411471  0.58856654     0.81500
N1103       N  0.99190258  0.17457632  0.60845815    -0.79200
C1104       C  0.98691943  0.17553425  0.64366368     0.81600
N1105       N  0.98190492  0.20603924  0.65869408    -0.81000
C1106       C  0.98502202  0.24964922  0.93935294     0.79000
N1107       N  0.98983492  0.21953442  0.92320504    -0.79300
C1108       C  0.98884042  0.18883361  0.94166202     0.81500
N1109       N  0.98372569  0.18871640  0.97669903    -0.79200
C1110       C  0.97948058  0.21883336  0.99353758     0.81600
N1111       N  0.97979206  0.24935525  0.97478091    -0.81000
O1112       O  0.89739805  0.02162114  0.76002922    -0.89400
C1113       C  0.60009964  0.09583689  0.85122937     1.10700
O1114       O  0.94011236  0.47788758  0.78757257    -1.37200
O1115       O  0.57272871  0.10101974  0.76270374    -0.90900
O1116       O  0.85531384  0.44149393  0.75387555    -0.91500
O1117       O  0.93690460  0.42934622  0.71413754    -0.80400
O1118       O  0.98882459  0.06263170  0.76576299    -1.02400
C1119       C  0.56117009  0.47888168  0.72778562     1.20700
O1120       O  0.98202514  0.43414857  0.78692587    -1.37300
Mn1121     Mn  0.98367882  0.47978157  0.82469647     1.82100
O1122       O  0.53022830  0.48012265  0.71819757    -0.79400
O1123       O  0.60766437  0.06723242  0.75985512    -0.88800
C1124       C  0.55777133  0.47814989  0.85662462     1.11800
C1125       C  0.60056724  0.09483810  0.74950391     1.06500
O1126       O  0.94173639  0.43944396  0.86274614    -0.80400
O1127       O  0.52549001  0.01766457  0.79919118    -1.34100
O1128       O  0.90417426  0.40062290  0.82232986    -0.99600
C1129       C  0.97909077  0.35503867  0.73535116     1.05200
Mn1130     Mn  0.58406856  0.02283258  0.79820376     1.48600
O1131       O  0.94551784  0.34864809  0.74973294    -0.88800
Mn1132     Mn  0.88197718  0.42389858  0.79119656     1.49600
O1133       O  0.89620169  0.01894418  0.83840949    -0.92700
C1134       C  0.98905033  0.05664819  0.73422037     1.18400
C1135       C  0.86674297  0.48322141  0.84219597     1.10500
Mn1136     Mn  0.98133064  0.47453403  0.74798326     1.81000
O1137       O  0.56446045  0.47915139  0.82488333    -0.97800
Mn1138     Mn  0.94097658  0.03785385  0.79825934     1.49300
C1139       C  0.86226260  0.47469514  0.74014998     1.07000
Mn1140     Mn  0.54130239  0.43181816  0.79063426     1.49900
C1141       C  0.98295224  0.35972258  0.83822177     1.09900
O1142       O  0.90092909  0.39604565  0.75747989    -1.03600
O1143       O  0.60756821  0.06832486  0.83849623    -0.93300
C1144       C  0.90475400  0.39936562  0.72583568     1.21200
O1145       O  0.56629749  0.47931567  0.75920476    -1.04000
O1146       O  0.57120667  0.10080508  0.84042793    -0.91400
O1147       O  0.52125798  0.38739302  0.82951418    -0.91000
O1148       O  0.86008683  0.44764258  0.83199424    -0.91000
Mn1149     Mn  0.52720242  0.07502307  0.80099240     1.47900
O1150       O  0.52424574  0.47457809  0.86691989    -0.79500
C1151       C  0.90953374  0.40747935  0.85344281     1.14200
O1152       O  0.98877259  0.02456093  0.72333080    -0.78200
O1153       O  0.98381321  0.02249546  0.87218036    -0.77800
Mn1154     Mn  0.92723908  0.37652956  0.78938875     1.51100
O1155       O  0.52574518  0.38727428  0.75124689    -0.90200
O1156       O  0.98749189  0.06070805  0.83117335    -0.97700
O1157       O  0.94822882  0.35381641  0.82864992    -0.92700
C1158       C  0.98740398  0.05575180  0.86274593     1.12000
C1159       C  0.98005119  0.11775438  0.93977516    -0.14600
C1160       C  0.99242407  0.15548571  0.92357981     0.07600
C1161       C  0.45639634  0.13080927  0.89474317    -0.14600
C1162       C  0.45557736  0.09822825  0.87559380    -0.14600
C1163       C  0.99230310  0.08993269  0.88580254     0.07600
C1164       C  0.97985375  0.08491023  0.92088705    -0.14600
H1165       H  0.96901699  0.11309290  0.96659359     0.11600
H1166       H  0.44242047  0.14700857  0.88374152     0.11600
H1167       H  0.44120052  0.09037533  0.85021428     0.11600
H1168       H  0.96852897  0.05554466  0.93305264     0.11600
C1169       C  0.51697577  0.34514511  0.89240409    -0.14600
C1170       C  0.98449073  0.33447519  0.86677620     0.07600
C1171       C  0.95111481  0.31338426  0.89003512    -0.14600
C1172       C  0.95218407  0.28776480  0.91545934    -0.14600
C1173       C  0.98628868  0.28218946  0.91764593     0.07600
C1174       C  0.51627007  0.31836195  0.91751005    -0.14600
H1175       H  0.54219214  0.37664702  0.89220198     0.11600
H1176       H  0.92395452  0.31622041  0.88824203     0.11600
H1177       H  0.92564851  0.27081501  0.93225128     0.11600
H1178       H  0.54118983  0.32943461  0.93587691     0.11600
C1179       C  0.49728885  0.14761280  0.70520907    -0.14600
C1180       C  0.98732777  0.14432113  0.66601576     0.07600
C1181       C  0.99164802  0.11147632  0.65185489    -0.14600
C1182       C  0.99230689  0.08269650  0.67384147    -0.14600
C1183       C  0.98885722  0.08651347  0.71025705     0.07600
C1184       C  0.49410152  0.11700273  0.72657252    -0.14600
H1185       H  0.50243045  0.17624329  0.71755309     0.11600
H1186       H  0.99450415  0.10800776  0.62389875     0.11600
H1187       H  0.99559623  0.05762614  0.66242258     0.11600
H1188       H  0.49707817  0.12319604  0.75450583     0.11600
C1189       C  0.94387154  0.25794632  0.67946530    -0.14600
C1190       C  0.97822395  0.26868329  0.65772753     0.07600
C1191       C  0.53298948  0.29861676  0.68578028    -0.14600
C1192       C  0.53174366  0.32814603  0.70823502    -0.14600
C1193       C  0.97749443  0.32661920  0.70658619     0.07600
C1194       C  0.94321947  0.28678618  0.70329442    -0.14600
H1195       H  0.91825512  0.22664473  0.67903667     0.11600
H1196       H  0.55932268  0.29420377  0.68612713     0.11600
H1197       H  0.55736798  0.34611280  0.72548807     0.11600
H1198       H  0.91681245  0.27714221  0.72050092     0.11600
C1199       C  0.99484412  0.20019052  0.55017143    -0.17600
C1200       C  0.99302770  0.22641816  0.52831235    -0.32800
H1201       H  0.99604515  0.17349114  0.53962920     0.11400
H1202       H  0.49533207  0.25452335  0.54607405     0.12000
C1203       C  0.81063509  0.52373663  0.90108301    -0.14600
C1204       C  0.78586150  0.48980368  0.92197598     0.07600
C1205       C  0.79028501  0.45477433  0.91861040    -0.14600
C1206       C  0.81749314  0.45297707  0.89353383    -0.14600
C1207       C  0.84126640  0.48643479  0.87159523     0.07600
C1208       C  0.83842058  0.52235002  0.87661090    -0.14600
H1209       H  0.82984275  0.04832863  0.93863550     0.11600
H1210       H  0.77093616  0.42789452  0.93389904     0.11600
H1211       H  0.81901354  0.42491196  0.89061336     0.11600
H1212       H  0.87902324  0.04805033  0.89499246     0.11600
C1213       C  0.62538997  0.48379951  0.86292956    -0.14600
C1214       C  0.58992764  0.48078992  0.87918043     0.07600
C1215       C  0.58677419  0.48061080  0.91563567    -0.14600
C1216       C  0.61871254  0.48306829  0.93538823    -0.14600
C1217       C  0.65395441  0.48572977  0.91886212     0.07600
C1218       C  0.65692058  0.48626142  0.88242716    -0.14600
H1219       H  0.62902205  0.48411410  0.83468855     0.11600
H1220       H  0.55994946  0.47846917  0.92865469     0.11600
H1221       H  0.61565415  0.48262406  0.96360210     0.11600
H1222       H  0.68342895  0.48822313  0.86882876     0.11600
C1223       C  0.79284892  0.44043900  0.71435865    -0.14600
C1224       C  0.83404497  0.47201956  0.71325741     0.07600
C1225       C  0.84734112  0.50170187  0.68731667    -0.14600
C1226       C  0.81954855  0.50017607  0.66314180    -0.14600
C1227       C  0.77808815  0.46972736  0.66546095     0.07600
C1228       C  0.76491397  0.43969518  0.69093028    -0.14600
H1229       H  0.78190476  0.41730549  0.73422336     0.11600
H1230       H  0.87900770  0.52626075  0.68604008     0.11600
H1231       H  0.82996391  0.52376602  0.64372177     0.11600
H1232       H  0.73289412  0.41604867  0.69296402     0.11600
C1233       C  0.62500623  0.48444555  0.64594070    -0.14600
C1234       C  0.64952450  0.46936608  0.65896568     0.07600
C1235       C  0.64233113  0.45543929  0.69348269    -0.14600
C1236       C  0.61363473  0.45857349  0.71500729    -0.14600
C1237       C  0.59012975  0.47491762  0.70282343     0.07600
C1238       C  0.59526153  0.48696104  0.66771489    -0.14600
H1239       H  0.62970565  0.49545765  0.61953576     0.11600
H1240       H  0.65977396  0.44285022  0.70452872     0.11600
H1241       H  0.61005281  0.44825002  0.74159999     0.11600
H1242       H  0.57732144  0.49945656  0.65753225     0.11600
C1243       C  0.73348420  0.48037966  0.55071385    -0.17600
C1244       C  0.70632176  0.47811480  0.52798122    -0.32800
H1245       H  0.76218023  0.48307041  0.54109617     0.11400
H1246       H  0.67764363  0.47541242  0.53770163     0.12000
C1247       C  0.80819216  0.32083387  0.88494060    -0.14600
C1248       C  0.81603825  0.31744122  0.91985174     0.07600
C1249       C  0.85436622  0.34657263  0.93403755    -0.14600
C1250       C  0.88483915  0.37718475  0.91309369    -0.14600
C1251       C  0.87737879  0.37893019  0.87771242     0.07600
C1252       C  0.83839648  0.35105100  0.86420561    -0.14600
H1253       H  0.77895899  0.29947432  0.87322433     0.11600
H1254       H  0.86128316  0.34495608  0.96098000     0.11600
H1255       H  0.91452409  0.39840090  0.92415745     0.11600
H1256       H  0.83135985  0.35200726  0.83714036     0.11600
C1257       C  0.65002936  0.11429982  0.90052407    -0.14600
C1258       C  0.62764381  0.12501390  0.87853631     0.07600
C1259       C  0.63434014  0.16544873  0.88074050    -0.14600
C1260       C  0.66449640  0.19514886  0.90267979    -0.14600
C1261       C  0.68773070  0.18484006  0.92378754     0.07600
C1262       C  0.67945940  0.14388768  0.92335263    -0.14600
H1263       H  0.64543752  0.08334825  0.89946679     0.11600
H1264       H  0.61778492  0.17475380  0.86407858     0.11600
H1265       H  0.67047915  0.22658241  0.90250486     0.11600
H1266       H  0.69731582  0.13537215  0.93918606     0.11600
C1267       C  0.84348142  0.33493235  0.64676872    -0.14600
C1268       C  0.80730826  0.30512555  0.66334843     0.07600
C1269       C  0.80335321  0.30851792  0.69975659    -0.14600
C1270       C  0.83484395  0.33944601  0.71927355    -0.14600
C1271       C  0.87154039  0.36845389  0.70322745     0.07600
C1272       C  0.87543124  0.36653474  0.66662614    -0.14600
H1273       H  0.84740210  0.33333317  0.61874781     0.11600
H1274       H  0.77598596  0.28669870  0.71369520     0.11600
H1275       H  0.83041881  0.34023595  0.74730792     0.11600
H1276       H  0.90331694  0.38877791  0.65355371     0.12100
C1277       C  0.67450083  0.13559421  0.67289353    -0.14600
C1278       C  0.67973568  0.17513436  0.67051919     0.07600
C1279       C  0.65738789  0.18740126  0.69275118    -0.14600
C1280       C  0.63038825  0.16058855  0.71758020    -0.14600
C1281       C  0.62633004  0.12154946  0.72119183     0.07600
C1282       C  0.64820752  0.10903116  0.69834798    -0.14600
H1283       H  0.69215233  0.12606512  0.65619947     0.11600
H1284       H  0.66155811  0.21809337  0.69135800     0.11600
H1285       H  0.61394292  0.17103130  0.73484317     0.11600
H1286       H  0.64542139  0.07899118  0.70048589     0.11600
C1287       C  0.74054342  0.22223195  0.55519717    -0.17600
C1288       C  0.76831409  0.24947790  0.53317968    -0.32800
H1289       H  0.71394587  0.19474569  0.54486038     0.11400
H1290       H  0.79499157  0.27690962  0.54348736     0.12000
C1291       C  0.71820980  0.70718986  0.14961235     0.79000
N1292       N  0.71483933  0.70195469  0.11450896    -0.79300
C1293       C  0.74560842  0.72849063  0.09338946     0.81500
N1294       N  0.78055595  0.76039094  0.10771923    -0.79200
C1295       C  0.78423762  0.76508042  0.14316193     0.81600
N1296       N  0.75274156  0.73853535  0.16366141    -0.81000
C1297       C  0.72260303  0.70389908  0.44725604     0.79000
N1298       N  0.72450350  0.70932134  0.48282443    -0.79300
C1299       C  0.75788790  0.74275296  0.49752664     0.81500
N1300       N  0.78795535  0.77021397  0.47683082    -0.79200
C1301       C  0.78606952  0.76531399  0.44180171     0.81600
N1302       N  0.75347876  0.73198505  0.42705886    -0.81000
C1303       C  0.75203147  0.97542305  0.15213052     0.79000
N1304       N  0.75959586  0.98383729  0.11778441    -0.79300
C1305       C  0.73270274  0.98862218  0.09841144     0.81500
N1306       N  0.69801164  0.98557239  0.11383296    -0.79200
C1307       C  0.69043630  0.97736866  0.14851246     0.81600
N1308       N  0.71758438  0.97214876  0.16709575    -0.81000
C1309       C  0.74080792  0.96548175  0.44489002     0.79000
N1310       N  0.73670357  0.96278822  0.48043613    -0.79300
C1311       C  0.70371557  0.96267492  0.49670558     0.81500
N1312       N  0.67548628  0.96513700  0.47742074    -0.79200
C1313       C  0.67936714  0.96789466  0.44228785     0.81600
N1314       N  0.71220719  0.96826879  0.42622339    -0.81000
C1315       C  0.99010513  0.73286714  0.13921582     0.79000
N1316       N  0.99464769  0.73417319  0.10382223    -0.79300
C1317       C  0.99618400  0.70281792  0.08575651     0.81500
N1318       N  0.99365774  0.67076729  0.10324807    -0.79200
C1319       C  0.98888139  0.66924662  0.13845211     0.81600
N1320       N  0.98679302  0.70020951  0.15613401    -0.81000
C1321       C  0.97877300  0.73553254  0.44233144     0.79000
N1322       N  0.98257968  0.70744775  0.42165215    -0.79300
C1323       C  0.98203646  0.67446688  0.43557622     0.81500
N1324       N  0.97781674  0.66966073  0.47038642    -0.79200
C1325       C  0.97375956  0.69688863  0.49164108     0.81600
N1326       N  0.97415393  0.73034072  0.47774252    -0.81000
O1327       O  0.89273118  0.50201474  0.24748988    -0.89400
C1328       C  0.60142382  0.59120756  0.34996007     1.10700
O1329       O  0.93950516  0.96765188  0.29478843    -1.37200
O1330       O  0.57712679  0.60427789  0.26368471    -0.90900
O1331       O  0.85656485  0.93211171  0.25630320    -0.91500
O1332       O  0.94171005  0.92536108  0.21949437    -0.80400
O1333       O  0.98270976  0.54750793  0.25221502    -1.02400
C1334       C  0.55892456  0.97604071  0.23194057     1.20700
O1335       O  0.98318427  0.92524780  0.29329453    -1.37300
Mn1336     Mn  0.98180035  0.96817109  0.33291106     1.82100
O1337       O  0.52775494  0.97678280  0.22228337    -0.79400
O1338       O  0.60670870  0.56568584  0.25469939    -0.88800
C1339       C  0.55855112  0.97695142  0.35955514     1.11800
C1340       C  0.60252942  0.59620292  0.24796483     1.06500
O1341       O  0.93881679  0.92491913  0.36782963    -0.80400
O1342       O  0.52560358  0.51823496  0.29532375    -1.34100
O1343       O  0.90235111  0.88661280  0.32544168    -0.99600
C1344       C  0.98525784  0.84896491  0.23926054     1.05200
Mn1345     Mn  0.58309964  0.52145151  0.29259783     1.48600
O1346       O  0.95081392  0.84167115  0.25194652    -0.88800
Mn1347     Mn  0.88155311  0.91273029  0.29354868     1.49600
O1348       O  0.89253309  0.50602277  0.32576492    -0.92700
C1349       C  0.98256117  0.54103056  0.22095427     1.18400
C1350       C  0.86118052  0.96645481  0.34673757     1.10500
Mn1351     Mn  0.98349684  0.96823513  0.25642507     1.81000
O1352       O  0.56348161  0.97706967  0.32811682    -0.97800
Mn1353     Mn  0.93729751  0.52425303  0.28566518     1.49300
C1354       C  0.86355062  0.96631596  0.24480140     1.07000
Mn1355     Mn  0.53928725  0.93065483  0.29491567     1.49900
C1356       C  0.98290750  0.84936589  0.34324540     1.09900
O1357       O  0.90380298  0.88683645  0.25982698    -1.03600
O1358       O  0.60893030  0.56581446  0.33304252    -0.93300
C1359       C  0.91055223  0.89256493  0.22857106     1.21200
O1360       O  0.56383595  0.97663083  0.26323520    -1.04000
O1361       O  0.57232963  0.59738779  0.34183827    -0.91400
O1362       O  0.51959470  0.88611193  0.33338729    -0.91000
O1363       O  0.85575308  0.93207629  0.33440012    -0.91000
Mn1364     Mn  0.52989730  0.57669750  0.30050645     1.47900
O1365       O  0.52679120  0.97657935  0.37097628    -0.79500
C1366       C  0.90807489  0.89243442  0.35717355     1.14200
O1367       O  0.98474005  0.51005320  0.21078735    -0.78200
O1368       O  0.98374520  0.51678079  0.35910550    -0.77800
Mn1369     Mn  0.92969999  0.86618681  0.29151607     1.51100
O1370       O  0.52004491  0.88574555  0.25451973    -0.90200
O1371       O  0.98377836  0.55137889  0.31683224    -0.97700
O1372       O  0.94893021  0.84218330  0.33075646    -0.92700
C1373       C  0.98409690  0.54803709  0.34814965     1.12000
C1374       C  0.99090863  0.61289201  0.42804276    -0.14600
C1375       C  0.98445987  0.64305604  0.41328725     0.07600
C1376       C  0.45935396  0.63129850  0.39567632    -0.14600
C1377       C  0.45814079  0.59905398  0.37567539    -0.14600
C1378       C  0.98425427  0.58021044  0.37115769     0.07600
C1379       C  0.99078295  0.58160408  0.40707142    -0.14600
H1380       H  0.99584259  0.61331685  0.45580315     0.11600
H1381       H  0.44559124  0.64795620  0.38518344     0.11600
H1382       H  0.44378047  0.59212837  0.35032060     0.11600
H1383       H  0.99580033  0.55867418  0.41884517     0.11600
C1384       C  0.51428669  0.84512163  0.39771062    -0.14600
C1385       C  0.98214227  0.82427116  0.37308160     0.07600
C1386       C  0.94468054  0.79498703  0.38852052    -0.14600
C1387       C  0.94377361  0.76851268  0.41404170    -0.14600
C1388       C  0.98023254  0.77091332  0.42494540     0.07600
C1389       C  0.51458750  0.81796670  0.42164061    -0.14600
H1390       H  0.53701206  0.87757912  0.39974064     0.11600
H1391       H  0.91585653  0.79133562  0.37987972     0.11600
H1392       H  0.91440713  0.74443425  0.42362654     0.11600
H1393       H  0.53783412  0.82974443  0.44162826     0.11600
C1394       C  0.48459984  0.64737445  0.20609757    -0.14600
C1395       C  0.98466667  0.63382269  0.15761782     0.07600
C1396       C  0.99813702  0.60741340  0.14320645    -0.14600
C1397       C  0.99609472  0.57564527  0.16302701    -0.14600
C1398       C  0.98056467  0.57010442  0.19736188     0.07600
C1399       C  0.48357124  0.61726789  0.22687003    -0.14600
H1400       H  0.48177365  0.67219887  0.21868970     0.11600
H1401       H  0.01136511  0.61210765  0.11714188     0.11600
H1402       H  0.00803660  0.55662297  0.15212178     0.11600
H1403       H  0.47987383  0.61974747  0.25484937     0.11600
C1404       C  0.95172328  0.75414599  0.18053927    -0.14600
C1405       C  0.98689260  0.76519631  0.15986197     0.07600
C1406       C  0.52392208  0.81323193  0.16912999    -0.14600
C1407       C  0.52268076  0.84098899  0.19406276    -0.14600
C1408       C  0.98522867  0.82154038  0.21018088     0.07600
C1409       C  0.95062502  0.78216238  0.20503464    -0.14600
H1410       H  0.92550973  0.72326644  0.17847753     0.11600
H1411       H  0.55280504  0.82072500  0.15637011     0.11600
H1412       H  0.55060123  0.86978669  0.19943505     0.11600
H1413       H  0.92329136  0.77220483  0.22112963     0.11600
C1414       C  0.99730758  0.70089021  0.04722096    -0.17600
C1415       C  0.99158676  0.72642115  0.02764003    -0.32800
H1416       H  0.00008500  0.67586982  0.03474490     0.11400
H1417       H  0.50294691  0.75828589  0.04302068     0.12000
C1418       C  0.80631608  0.00340719  0.41100135    -0.14600
C1419       C  0.77610250  0.96648586  0.42568948     0.07600
C1420       C  0.77574292  0.92975050  0.41620138    -0.14600
C1421       C  0.80423808  0.92978087  0.39155456    -0.14600
C1422       C  0.83370378  0.96662437  0.37578592     0.07600
C1423       C  0.83502750  0.00358893  0.38669371    -0.14600
H1424       H  0.80275544  0.53968794  0.39533025     0.11600
H1425       H  0.75212561  0.90074178  0.42653459     0.11600
H1426       H  0.80228538  0.90072220  0.38400009     0.11600
H1427       H  0.85193347  0.53664542  0.35414657     0.11600
C1428       C  0.62585709  0.98115662  0.36638572    -0.14600
C1429       C  0.58947033  0.97641350  0.38197916     0.07600
C1430       C  0.58300547  0.96962617  0.41791898    -0.14600
C1431       C  0.61228990  0.96696927  0.43773101    -0.14600
C1432       C  0.64841937  0.97112509  0.42183556     0.07600
C1433       C  0.65487963  0.97849923  0.38601048    -0.14600
H1434       H  0.63189462  0.98662244  0.33869969     0.11600
H1435       H  0.55516558  0.96567803  0.43049733     0.11600
H1436       H  0.60641465  0.96124528  0.46537743     0.11600
H1437       H  0.68237351  0.98214185  0.37296032     0.11600
C1438       C  0.79315911  0.94142776  0.22439618    -0.14600
C1439       C  0.83559134  0.96552690  0.21869256     0.07600
C1440       C  0.85057633  0.99062970  0.18951466    -0.14600
C1441       C  0.82323368  0.99235562  0.16663353    -0.14600
C1442       C  0.78079429  0.97002473  0.17344960     0.07600
C1443       C  0.76595728  0.94410730  0.20222069    -0.14600
H1444       H  0.78115559  0.92200657  0.24693731     0.11600
H1445       H  0.88333013  0.00925443  0.18478639     0.11600
H1446       H  0.83529347  0.01252746  0.14458287     0.11600
H1447       H  0.73333762  0.92637921  0.20784539     0.11600
C1448       C  0.62787490  0.98699856  0.15284074    -0.14600
C1449       C  0.65354588  0.97397185  0.16709225     0.07600
C1450       C  0.64510358  0.95889482  0.20116899    -0.14600
C1451       C  0.61367290  0.95873906  0.22111388    -0.14600
C1452       C  0.58903357  0.97324770  0.20778067     0.07600
C1453       C  0.59559268  0.98641511  0.17304663    -0.14600
H1454       H  0.63344228  0.99865973  0.12662361     0.11600
H1455       H  0.66342538  0.94782380  0.21305531     0.11600
H1456       H  0.60907928  0.94766444  0.24752164     0.11600
H1457       H  0.57693712  0.99765166  0.16208116     0.11600
C1458       C  0.74071178  0.99394822  0.06043355    -0.17600
C1459       C  0.71428310  0.99525337  0.03863986    -0.32800
H1460       H  0.76785228  0.99394902  0.04993877     0.11400
H1461       H  0.68700657  0.99492921  0.04920054     0.12000
C1462       C  0.81849867  0.79184690  0.38410990    -0.14600
C1463       C  0.81841933  0.79730806  0.42038257     0.07600
C1464       C  0.84890749  0.83427947  0.43616178    -0.14600
C1465       C  0.87877819  0.86560268  0.41593566    -0.14600
C1466       C  0.87838468  0.86015381  0.37971634     0.07600
C1467       C  0.84820619  0.82295456  0.36401700    -0.14600
H1468       H  0.79557544  0.76379325  0.37123896     0.11600
H1469       H  0.84944267  0.83937176  0.46422093     0.11600
H1470       H  0.90158320  0.89394714  0.42841882     0.11600
H1471       H  0.84727369  0.81774402  0.33589033     0.11600
C1472       C  0.66497498  0.61377218  0.38516518    -0.14600
C1473       C  0.62895246  0.61540001  0.37956257     0.07600
C1474       C  0.62139138  0.64235291  0.40095860    -0.14600
C1475       C  0.65040717  0.66884063  0.42566308    -0.14600
C1476       C  0.68746420  0.66890861  0.42939327     0.07600
C1477       C  0.69407977  0.64060166  0.40940597    -0.14600
H1478       H  0.67184484  0.59328757  0.36947965     0.11600
H1479       H  0.59389149  0.64422568  0.39760972     0.11600
H1480       H  0.64510245  0.69110933  0.44022230     0.11600
H1481       H  0.72278402  0.64066781  0.41134358     0.11600
C1482       C  0.84472011  0.83795346  0.14866170    -0.14600
C1483       C  0.82182464  0.79743218  0.16070752     0.07600
C1484       C  0.83196053  0.78831940  0.19290729    -0.14600
C1485       C  0.86189692  0.81920532  0.21387339    -0.14600
C1486       C  0.88302716  0.86022303  0.20322202     0.07600
C1487       C  0.87533068  0.86925618  0.16983444    -0.14600
H1488       H  0.83745237  0.84580163  0.12395418     0.11600
H1489       H  0.81543863  0.75728012  0.20264395     0.11600
H1490       H  0.86764558  0.81107915  0.23911948     0.11600
H1491       H  0.89135822  0.90066728  0.16097018     0.12100
C1492       C  0.66698758  0.63595099  0.16646938    -0.14600
C1493       C  0.68545244  0.67860226  0.17269151     0.07600
C1494       C  0.67475027  0.69389686  0.20266896    -0.14600
C1495       C  0.64630646  0.66681963  0.22653121    -0.14600
C1496       C  0.62923747  0.62420858  0.22115793     0.07600
C1497       C  0.63948696  0.60881686  0.19094079    -0.14600
H1498       H  0.67521752  0.62373910  0.14353349     0.11600
H1499       H  0.68879231  0.72678773  0.20777789     0.11600
H1500       H  0.63888688  0.67914183  0.24985928     0.11600
H1501       H  0.62645827  0.57591625  0.18646287     0.11600
C1502       C  0.73931151  0.72228086  0.05527117    -0.17600
C1503       C  0.76734334  0.74719347  0.03228726    -0.32800
H1504       H  0.70991136  0.69749209  0.04602388     0.11400
H1505       H  0.79647032  0.77232099  0.04168571     0.12000
C1506       C  0.71400164  0.71928544  0.65360820     0.79000
N1507       N  0.71216337  0.71134845  0.61884991    -0.79300
C1508       C  0.74146581  0.73838540  0.59712237     0.81500
N1509       N  0.77393384  0.77388689  0.61055516    -0.79200
C1510       C  0.77585318  0.78211531  0.64576998     0.81600
N1511       N  0.74551803  0.75462532  0.66680468    -0.81000
C1512       C  0.71915845  0.71473094  0.94422298     0.79000
N1513       N  0.72546583  0.71339836  0.97896979    -0.79300
C1514       C  0.75954195  0.74497808  0.99453049     0.81500
N1515       N  0.78700072  0.77689457  0.97527084    -0.79200
C1516       C  0.78099645  0.77846195  0.94087760     0.81600
N1517       N  0.74687091  0.74742182  0.92555809    -0.81000
C1518       C  0.75464507  0.98181586  0.64977850     0.79000
N1519       N  0.75376329  0.97333471  0.61512701    -0.79300
C1520       C  0.72183066  0.96800421  0.59567820     0.81500
N1521       N  0.68966939  0.97015261  0.61147381    -0.79200
C1522       C  0.69029379  0.97814140  0.64666801     0.81600
N1523       N  0.72316161  0.98421936  0.66513569    -0.81000
C1524       C  0.75044806  0.98701966  0.94841748     0.79000
N1525       N  0.75031457  0.99194794  0.98388289    -0.79300
C1526       C  0.71813894  0.99326723  0.00023926     0.81500
N1527       N  0.68690337  0.99006488  0.98106167    -0.79200
C1528       C  0.68695132  0.98522925  0.94588225     0.81600
N1529       N  0.71863907  0.98340479  0.92985944    -0.81000
C1530       C  0.97280345  0.73328505  0.64805273     0.79000
N1531       N  0.96629754  0.73368362  0.61368530    -0.79300
C1532       C  0.96570320  0.70449683  0.59155736     0.81500
N1533       N  0.97072758  0.67349928  0.60429632    -0.79200
C1534       C  0.97689965  0.67282407  0.63926609     0.81600
N1535       N  0.97837315  0.70324086  0.66059634    -0.81000
C1536       C  0.97505533  0.74393735  0.93699950     0.79000
N1537       N  0.97551918  0.71220021  0.91954722    -0.79300
C1538       C  0.98222021  0.68488945  0.93625326     0.81500
N1539       N  0.98784134  0.68930319  0.97147715    -0.79200
C1540       C  0.98718817  0.72124814  0.98935464     0.81600
N1541       N  0.98122783  0.74866337  0.97189493    -0.81000
O1542       O  0.89159617  0.50999210  0.74904618    -0.89400
C1543       C  0.59729934  0.59594028  0.84971625     1.10700
O1544       O  0.94220877  0.98193477  0.79556375    -1.37200
O1545       O  0.57188649  0.60554172  0.76315457    -0.90900
O1546       O  0.86241388  0.95283415  0.75565439    -0.91500
O1547       O  0.94250643  0.93864530  0.71932140    -0.80400
O1548       O  0.98218120  0.55549635  0.75193287    -1.02400
C1549       C  0.55952993  0.97614827  0.73309469     1.20700
O1550       O  0.98137746  0.93581613  0.79400411    -1.37300
Mn1551     Mn  0.98257555  0.97919734  0.83382656     1.82100
O1552       O  0.52663277  0.97347831  0.72357128    -0.79400
O1553       O  0.60650879  0.57148651  0.75580723    -0.88800
C1554       C  0.55876314  0.97694056  0.86098331     1.11800
C1555       C  0.59995209  0.60048462  0.74877660     1.06500
O1556       O  0.93739297  0.93650110  0.86767972    -0.80400
O1557       O  0.52460445  0.51904998  0.79484751    -1.34100
O1558       O  0.90055622  0.90152695  0.82487365    -0.99600
C1559       C  0.97927317  0.85732930  0.74277471     1.05200
Mn1560     Mn  0.58414728  0.52650832  0.79319153     1.48600
O1561       O  0.94514760  0.85454280  0.75132635    -0.88800
Mn1562     Mn  0.88295716  0.92935176  0.79366547     1.49600
O1563       O  0.89352737  0.51617307  0.82759493    -0.92700
C1564       C  0.98147997  0.54815083  0.72059546     1.18400
C1565       C  0.86689820  0.98463166  0.84876492     1.10500
Mn1566     Mn  0.98534507  0.98014060  0.75716707     1.81000
O1567       O  0.56384789  0.97672145  0.82954627    -0.97800
Mn1568     Mn  0.93728686  0.53287825  0.78660209     1.49300
C1569       C  0.87009613  0.98812096  0.74625863     1.07000
Mn1570     Mn  0.53984063  0.93033450  0.79610959     1.49900
C1571       C  0.97407497  0.85789881  0.84326986     1.09900
O1572       O  0.90247361  0.90285507  0.75958145    -1.03600
O1573       O  0.60670943  0.57105785  0.83428474    -0.93300
C1574       C  0.90867693  0.90864623  0.72837297     1.21200
O1575       O  0.56451200  0.97660120  0.76443100    -1.04000
O1576       O  0.56703103  0.59961252  0.84051703    -0.91400
O1577       O  0.52078324  0.88572238  0.83427565    -0.91000
O1578       O  0.85884171  0.95037017  0.83421093    -0.91000
Mn1579     Mn  0.52452353  0.57556801  0.79953900     1.47900
O1580       O  0.52708645  0.97686594  0.87216684    -0.79500
C1581       C  0.90506591  0.90613496  0.85633374     1.14200
O1582       O  0.98010629  0.51508550  0.71108980    -0.78200
O1583       O  0.98560452  0.52574411  0.85966706    -0.77800
Mn1584     Mn  0.92499573  0.87951967  0.79121851     1.51100
O1585       O  0.52034065  0.88545810  0.75572904    -0.90200
O1586       O  0.98452676  0.56009245  0.81747266    -0.97700
O1587       O  0.94137472  0.85182174  0.82898344    -0.92700
C1588       C  0.98555253  0.55695558  0.84894819     1.12000
C1589       C  0.98736792  0.61983610  0.93033911    -0.14600
C1590       C  0.98408305  0.65173887  0.91518796     0.07600
C1591       C  0.45392654  0.62663749  0.89534189    -0.14600
C1592       C  0.45254020  0.59445052  0.87506374    -0.14600
C1593       C  0.98587452  0.58930625  0.87257124     0.07600
C1594       C  0.98814833  0.58871470  0.90913956    -0.14600
H1595       H  0.98893704  0.61872631  0.95842877     0.11600
H1596       H  0.44083584  0.64392042  0.88484804     0.11600
H1597       H  0.43858367  0.58804276  0.84955041     0.11600
H1598       H  0.99031958  0.56424016  0.92126374     0.11600
C1599       C  0.52052972  0.84107394  0.89292864    -0.14600
C1600       C  0.97061646  0.83007902  0.87073473     0.07600
C1601       C  0.94103891  0.78815611  0.86780370    -0.14600
C1602       C  0.94135826  0.76021854  0.89058117    -0.14600
C1603       C  0.97039342  0.77402588  0.91726717     0.07600
C1604       C  0.52063453  0.81345867  0.91646478    -0.14600
H1605       H  0.54713955  0.87165787  0.89128486     0.11600
H1606       H  0.91924202  0.77667219  0.84664762     0.11600
H1607       H  0.91977991  0.72763852  0.88671290     0.11600
H1608       H  0.54736402  0.82292231  0.93243035     0.11600
C1609       C  0.48022722  0.64490813  0.70535595    -0.14600
C1610       C  0.98277514  0.64056307  0.65551909     0.07600
C1611       C  0.96385338  0.59926933  0.64317278    -0.14600
C1612       C  0.96482688  0.56877278  0.66318342    -0.14600
C1613       C  0.98424692  0.57922621  0.69590461     0.07600
C1614       C  0.47793770  0.61395955  0.72587070    -0.14600
H1615       H  0.47668432  0.66927127  0.71801678     0.11600
H1616       H  0.94672814  0.59027760  0.61910564     0.11600
H1617       H  0.94865906  0.53692686  0.65403947     0.11600
H1618       H  0.47274473  0.61546345  0.75371669     0.11600
C1619       C  0.94839684  0.78124675  0.66739005    -0.14600
C1620       C  0.97545000  0.76620042  0.67127512     0.07600
C1621       C  0.52476962  0.81450181  0.66951787    -0.14600
C1622       C  0.52323553  0.84211126  0.69442366    -0.14600
C1623       C  0.97957692  0.82818179  0.71661879     0.07600
C1624       C  0.95006149  0.81172949  0.69030928    -0.14600
H1625       H  0.92527305  0.76858003  0.64728097     0.11600
H1626       H  0.55358287  0.82248073  0.65638665     0.11600
H1627       H  0.55084987  0.87131986  0.69949211     0.11600
H1628       H  0.92816930  0.82220198  0.68770155     0.11600
C1629       C  0.96317097  0.71018484  0.55390078    -0.17600
C1630       C  0.97088645  0.68888319  0.52934760    -0.32800
H1631       H  0.95781756  0.73474537  0.54631730     0.11400
H1632       H  0.50422913  0.76115246  0.54403805     0.12000
C1633       C  0.82230982  0.01999483  0.92432112    -0.14600
C1634       C  0.78379015  0.98461980  0.92908480     0.07600
C1635       C  0.77436588  0.94867697  0.90948150    -0.14600
C1636       C  0.80228031  0.94828845  0.88477247    -0.14600
C1637       C  0.83997748  0.98424737  0.87831219     0.07600
C1638       C  0.85015244  0.01989499  0.89905512    -0.14600
H1639       H  0.80731303  0.55084096  0.90277969     0.11600
H1640       H  0.74454550  0.92126598  0.91228587     0.11600
H1641       H  0.79336371  0.92024030  0.86950337     0.11600
H1642       H  0.85616071  0.54873909  0.86034973     0.11600
C1643       C  0.62205683  0.97338592  0.86850430    -0.14600
C1644       C  0.59005880  0.97783637  0.88385230     0.07600
C1645       C  0.58944752  0.98395446  0.92015852    -0.14600
C1646       C  0.62075868  0.98605799  0.94063812    -0.14600
C1647       C  0.65299630  0.98202476  0.92501246     0.07600
C1648       C  0.65302824  0.97541048  0.88876934    -0.14600
H1649       H  0.62337674  0.96847487  0.84055780     0.11600
H1650       H  0.56519686  0.98760648  0.93257117     0.11600
H1651       H  0.61990672  0.99120835  0.96856971     0.11600
H1652       H  0.67717083  0.97200724  0.87582604     0.11600
C1653       C  0.83222201  0.96163723  0.69062520    -0.14600
C1654       C  0.84510614  0.99014465  0.71877744     0.07600
C1655       C  0.83144403  0.01872596  0.72194721    -0.14600
C1656       C  0.80285399  0.01686202  0.69858132    -0.14600
C1657       C  0.78866548  0.98726277  0.67121328     0.07600
C1658       C  0.80450539  0.96056750  0.66663275    -0.14600
H1659       H  0.84291520  0.93969586  0.68766876     0.11600
H1660       H  0.84114084  0.04095072  0.74355320     0.11600
H1661       H  0.79102330  0.03782210  0.70234987     0.11600
H1662       H  0.79375289  0.93746846  0.64569491     0.11600
C1663       C  0.61760506  0.96776416  0.65186052    -0.14600
C1664       C  0.65624372  0.97996722  0.66631288     0.07600
C1665       C  0.66244745  0.99275760  0.70172025    -0.14600
C1666       C  0.63116791  0.99202710  0.72236954    -0.14600
C1667       C  0.59224234  0.97881381  0.70861995     0.07600
C1668       C  0.58582011  0.96732650  0.67287650    -0.14600
H1669       H  0.61169963  0.95775200  0.62471931     0.11600
H1670       H  0.69162060  0.00292835  0.71408764     0.11600
H1671       H  0.63758836  0.00162638  0.74958673     0.11600
H1672       H  0.55609979  0.95698955  0.66150875     0.11600
C1673       C  0.72475002  0.96239240  0.55744692    -0.17600
C1674       C  0.69811386  0.96232089  0.53511527    -0.32800
H1675       H  0.75128864  0.96093244  0.54731441     0.11400
H1676       H  0.67183633  0.96422176  0.54532687     0.12000
C1677       C  0.80492551  0.81570620  0.88493131    -0.14600
C1678       C  0.81195600  0.81312197  0.92022140     0.07600
C1679       C  0.84933628  0.84317620  0.93518272    -0.14600
C1680       C  0.87957821  0.87438324  0.91482257    -0.14600
C1681       C  0.87283593  0.87590135  0.87926209     0.07600
C1682       C  0.83498952  0.84670160  0.86471221    -0.14600
H1683       H  0.77641947  0.79338182  0.87267179     0.11600
H1684       H  0.85563111  0.84211819  0.96241580     0.11600
H1685       H  0.90847404  0.89655954  0.92660790     0.11600
H1686       H  0.82874510  0.84737842  0.83737850     0.11600
C1687       C  0.64987742  0.61349235  0.89679403    -0.14600
C1688       C  0.62407937  0.62336682  0.87845823     0.07600
C1689       C  0.62684473  0.66175887  0.88558710    -0.14600
C1690       C  0.65646197  0.69060779  0.90852558    -0.14600
C1691       C  0.68310168  0.68130909  0.92584281     0.07600
C1692       C  0.67886825  0.64209555  0.92052009    -0.14600
H1693       H  0.64849225  0.58415277  0.89199381     0.11600
H1694       H  0.60769383  0.67049800  0.87186767     0.11600
H1695       H  0.65956963  0.72086611  0.91184048     0.11600
H1696       H  0.69957882  0.63451754  0.93311331     0.11600
C1697       C  0.85096171  0.83931738  0.64950618    -0.14600
C1698       C  0.81032172  0.81959004  0.66267577     0.07600
C1699       C  0.80282184  0.83291520  0.69539108    -0.14600
C1700       C  0.83485463  0.86267736  0.71553207    -0.14600
C1701       C  0.87570129  0.88103617  0.70356043     0.07600
C1702       C  0.88347719  0.87004273  0.66979708    -0.14600
H1703       H  0.85782514  0.82962816  0.62447578     0.11600
H1704       H  0.77199266  0.81906813  0.70624184     0.11600
H1705       H  0.82758601  0.87062767  0.74118126     0.11600
H1706       H  0.91468678  0.88356238  0.65991566     0.12100
C1707       C  0.66652341  0.64657818  0.66944692    -0.14600
C1708       C  0.68306724  0.68885747  0.67700693     0.07600
C1709       C  0.67103490  0.70176379  0.70767507    -0.14600
C1710       C  0.64276705  0.67271391  0.73053133    -0.14600
C1711       C  0.62714217  0.63054389  0.72340735     0.07600
C1712       C  0.63924254  0.61756908  0.69285650    -0.14600
H1713       H  0.67569482  0.63604805  0.64600576     0.11600
H1714       H  0.68347191  0.73425221  0.71390000     0.11600
H1715       H  0.63403738  0.68315066  0.75428655     0.11600
H1716       H  0.62751682  0.58506522  0.68713649     0.11600
C1717       C  0.73612449  0.72793589  0.55935115    -0.17600
C1718       C  0.76311262  0.75176545  0.53542886    -0.32800
H1719       H  0.70869707  0.69981075  0.55106046     0.11400
H1720       H  0.79058757  0.77977928  0.54386372     0.12000
loop_ 
_geom_bond_atom_site_label_1 
_geom_bond_atom_site_label_2 
_geom_bond_distance 
_geom_bond_site_symmetry_2 
_ccdc_geom_bond_type 
C1            N2   1.353       .  A
C1            N6   1.351       .  A
C1          C203   1.467       .  S
N2            C3   1.358       .  A
C3            N4   1.370       .  A
C3          C212   1.477       .  S
N4            C5   1.364       .  A
C5            N6   1.357       .  A
C5          C193   1.488       .  S
C7            N8   1.368       .  A
C7           N12   1.358       .  A
C7          C186   1.482       .  S
N8            C9   1.370       .  A
C9           N10   1.350       .  A
C9          C428   1.475       .  S
N10          C11   1.349       .  A
C11          N12   1.357       .  A
C11         C173   1.474       .  S
C13          N14   1.358       .  A
C13          N18   1.350       .  A
C13         C152   1.472       .  S
N14          C15   1.364       .  A
C15          N16   1.367       .  A
C15         C168   1.481       .  S
N16          C17   1.361       .  A
C17          N18   1.355       .  A
C17         C159   1.488       .  S
C19          N20   1.359       .  A
C19          N24   1.353       .  A
C19         C129   1.467       .  S
N20          C21   1.364       .  A
C21          N22   1.356       .  A
C21         C384   1.472       .  S
N22          C23   1.355       .  A
C23          N24   1.355       .  A
C23         C142   1.474       .  S
C25          N26   1.357       .  A
C25          N30   1.352       .  A
C25         C115   1.465       .  S
N26          C27   1.363       .  A
C27          N28   1.364       .  A
C27         C124   1.478       .  S
N28          C29   1.361       .  A
C29          N30   1.355       .  A
C29         C105   1.485       .  S
C31          N32   1.355       .  A
C31          N36   1.361       .  A
C31          C98   1.478       .  S
N32          C33   1.358       .  A
C33          N34   1.356       .  A
C33          C85   1.482       .  S
N34          C35   1.361       .  A
C35          N36   1.365       .  A
C35         C340   1.478       .  S
O37         Mn63   2.086       .  S
O37         C494   1.271   1_545  A
C38         C183   1.494       .  S
C38          O71   1.275       .  A
C38          O68   1.276       .  A
O39         Mn46   2.181       .  S
O39         Mn57   2.110       .  S
O39         Mn61   2.171       .  S
O39        Mn493   2.118       .  S
O40         Mn74   2.081       .  S
O40          C50   1.270       .  A
O41         Mn57   2.097       .  S
O41          C64   1.273       .  A
O42         Mn61   2.140       .  S
O42          C69   1.255       .  A
O43         Mn63   1.965       .  S
O43        Mn934   1.968       .  S
O43          C59   1.220       .  S
C44         C162   1.484       .  S
C44          O47   1.256       .  A
C44          O70   1.216       .  S
O45         Mn46   2.184       .  S
O45         Mn79   2.109       .  S
O45         Mn61   2.181       .  S
O45        Mn925   2.106       .  S
Mn46         O51   2.111       .  S
Mn46        O935   2.125       .  S
Mn46        O508   2.132       .  S
Mn46       O1342   2.170       .  S
O47        Mn921   2.132   1_455  S
O48         Mn55   2.092       .  S
O48          C50   1.271       .  A
C49         C139   1.467       .  S
C49          O75   1.250       .  A
C49          O62   1.235       .  A
C50         C206   1.469       .  S
O51          C76   1.253       .  A
O52         Mn55   2.117       .  S
O52         Mn74   2.120       .  S
O52       Mn1336   2.165   1_445  S
O52       Mn1351   2.178   1_445  S
O53         Mn57   1.945       .  S
O53         Mn79   1.943       .  S
O53          C76   1.212       .  S
C54         C118   1.476       .  S
C54          O56   1.271       .  A
C54         O940   1.268       .  A
Mn55         O68   2.114       .  S
Mn55        O500   1.959   1_545  S
Mn55        O492   1.954   1_545  S
O56         Mn79   2.090       .  S
Mn57         O73   2.101       .  S
Mn57         O67   1.955       .  S
O58         Mn63   2.105       .  S
O58         C490   1.273   1_545  A
C59         C108   1.480       .  S
C59          O77   1.253       .  A
C60         C132   1.482       .  S
C60          O73   1.272       .  A
C60         O488   1.269       .  A
Mn61        O907   2.137       .  S
Mn61        O507   2.099       .  S
Mn61       O1342   2.184       .  S
O62         Mn65   1.998       .  S
O62        Mn485   2.001       .  S
Mn63        O469   2.116   1_545  S
Mn63         O81   1.934       .  S
C64         C149   1.479       .  S
C64         O467   1.273       .  A
Mn65         O72   2.095       .  S
Mn65         O80   2.064       .  S
Mn65        O905   2.110   1_455  S
Mn65         O70   1.976       .  S
C66          C95   1.488       .  S
C66          O82   1.273       .  A
C66         O932   1.274       .  A
O67         Mn79   1.949       .  S
O67          C69   1.215       .  S
C69         C196   1.485       .  S
O70        Mn485   1.966       .  S
O71         Mn74   2.105       .  S
O72         C926   1.270   1_455  A
Mn74        O903   1.969   1_455  S
Mn74        O941   1.952   1_455  S
O75        Mn906   2.114   1_455  S
C76         C176   1.469       .  S
O77        Mn491   2.104   1_545  S
O78        Mn476   2.137   1_545  S
O78          C83   1.255       .  A
Mn79         O82   2.098       .  S
O80         C914   1.267   1_455  A
O81        Mn934   1.947       .  S
O81          C83   1.212       .  S
C83          C88   1.479       .  S
C84          C85   1.412       .  A
C84          C89   1.407       .  A
C84          H90   1.083       .  S
C85         C946   1.400       .  A
C86          C87   1.389       .  A
C86         C945   1.403       .  A
C86          H91   1.083       .  S
C87         C948   1.405       .  A
C87          H92   1.084       .  S
C88          C89   1.403       .  A
C88         C947   1.407       .  A
C89          H93   1.083       .  S
C94          C99   1.404       .  A
C94         C955   1.407   1_455  A
C94         H100   1.083       .  S
C95          C96   1.406       .  A
C95         C954   1.410       .  A
C96          C97   1.398       .  A
C96         H101   1.083       .  S
C97          C98   1.403       .  A
C97         H102   1.083       .  S
C98         C959   1.404       .  A
C99         C958   1.406   1_455  A
C99         H103   1.083       .  S
C104        C109   1.390       .  A
C104        C965   1.407       .  A
C104        H110   1.083       .  S
C105        C106   1.408       .  A
C105        C964   1.406       .  A
C106        C107   1.405       .  A
C106        H111   1.083       .  S
C107        C108   1.407       .  A
C107        H112   1.083       .  S
C108        C969   1.403       .  A
C109        C968   1.403       .  A
C109        H113   1.083       .  S
C114        C115   1.401       .  A
C114        C119   1.394       .  A
C114        H120   1.083       .  S
C115        C976   1.401       .  A
C116        C117   1.391       .  A
C116        C975   1.399   1_455  A
C116        H121   1.084       .  S
C117        C978   1.407   1_455  A
C117        H122   1.083       .  S
C118        C119   1.404       .  A
C118        C977   1.408       .  A
C119        H123   1.083       .  S
C124        C125   1.348       .  D
C124        H126   1.085       .  S
C125        C250   1.479   1_554  S
C125        H987   1.085       .  S
H127        C985   1.087       .  S
C128        C129   1.400       .  A
C128        C133   1.395       .  A
C128        H564   1.084       .  S
C129        C130   1.402       .  A
C130        C131   1.402       .  A
C130        H135   1.083       .  S
C131        C132   1.408       .  A
C131        H136   1.083       .  S
C132        C133   1.407       .  A
C133        H567   1.083       .  S
H134        C558   1.083       .  S
H137        C563   1.083       .  S
C138        C139   1.407       .  A
C138        C143   1.382       .  A
C138        H144   1.086       .  S
C139        C140   1.400       .  A
C140        C141   1.401       .  A
C140        H145   1.080       .  S
C141        C142   1.409       .  A
C141        H146   1.083       .  S
C142        C143   1.400       .  A
C143        H147   1.082       .  S
C148        C149   1.408       .  A
C148        C153   1.403       .  A
C148        H154   1.083       .  S
C149        C150   1.404       .  A
C150        C151   1.396       .  A
C150        H155   1.083       .  S
C151        C152   1.403       .  A
C151        H156   1.084       .  S
C152        C153   1.403       .  A
C153        H157   1.083       .  S
C158        C159   1.411       .  A
C158        C163   1.411       .  A
C158        H164   1.083       .  S
C159        C160   1.404       .  A
C160        C161   1.385       .  A
C160        H165   1.083       .  S
C161        C162   1.404       .  A
C161        H166   1.084       .  S
C162        C163   1.408       .  A
C163        H167   1.083       .  S
C168        C169   1.345       .  D
C168        H170   1.085       .  S
C169        C236   1.479   1_554  S
C169        H171   1.085       .  S
C172        C173   1.399       .  A
C172        C177   1.388       .  A
C172        H178   1.083       .  S
C173        C174   1.410       .  A
C174        C175   1.397       .  A
C174        H179   1.083       .  S
C175        C176   1.400       .  A
C175        H180   1.083       .  S
C176        C177   1.407       .  A
C177        H181   1.083       .  S
C182        C183   1.410       .  A
C182        C187   1.408       .  A
C182        H188   1.083       .  S
C183        C184   1.408       .  A
C184        C185   1.401       .  A
C184        H189   1.083       .  S
C185        C186   1.404       .  A
C185        H190   1.083       .  S
C186        C187   1.405       .  A
C187        H191   1.083       .  S
C192        C193   1.411       .  A
C192        C197   1.414       .  A
C192        H198   1.083       .  S
C193        C194   1.403       .  A
C194        C195   1.385       .  A
C194        H199   1.083       .  S
C195        C196   1.404       .  A
C195        H200   1.084       .  S
C196        C197   1.409       .  A
C197        H201   1.083       .  S
C202        C203   1.404       .  A
C202        C207   1.400       .  A
C202        H208   1.083       .  S
C203        C204   1.401       .  A
C204        C205   1.393       .  A
C204        H209   1.083       .  S
C205        C206   1.403       .  A
C205        H210   1.083       .  S
C206        C207   1.404       .  A
C207        H211   1.083       .  S
C212        C213   1.338       .  D
C212        H214   1.087       .  S
C213        C224   1.477   1_554  S
C213        H215   1.087       .  S
C216        N217   1.351       .  A
C216        N221   1.351       .  A
C216        C418   1.460       .  S
N217        C218   1.355       .  A
C218        N219   1.372       .  A
C218        C427   1.478       .  S
N219        C220   1.365       .  A
C220        N221   1.356       .  A
C220        C408   1.487       .  S
C222        N223   1.362       .  A
C222        N227   1.355       .  A
C222        C401   1.471       .  S
N223        C224   1.367       .  A
C224        N225   1.356       .  A
N225        C226   1.355       .  A
C226        N227   1.356       .  A
C226        C388   1.480       .  S
C228        N229   1.356       .  A
C228        N233   1.356       .  A
C228        C367   1.472       .  S
N229        C230   1.359       .  A
C230        N231   1.364       .  A
C230        C383   1.475       .  S
N231        C232   1.359       .  A
C232        N233   1.359       .  A
C232        C374   1.485       .  S
C234        N235   1.360       .  A
C234        N239   1.353       .  A
C234        C344   1.472       .  S
N235        C236   1.365       .  A
C236        N237   1.362       .  A
N237        C238   1.359       .  A
C238        N239   1.356       .  A
C238        C357   1.484       .  S
C240        N241   1.355       .  A
C240        N245   1.351       .  A
C240        C330   1.463       .  S
N241        C242   1.361       .  A
C242        N243   1.364       .  A
C242        C339   1.477       .  S
N243        C244   1.361       .  A
C244        N245   1.356       .  A
C244        C320   1.485       .  S
C246        N247   1.355       .  A
C246        N251   1.361       .  A
C246        C313   1.477       .  S
N247        C248   1.357       .  A
C248        N249   1.356       .  A
C248        C300   1.478       .  S
N249        C250   1.361       .  A
C250        N251   1.364       .  A
O252       Mn278   2.082       .  S
O252        C709   1.270   1_545  A
C253        C398   1.487       .  S
C253        O286   1.270       .  A
C253        O283   1.270       .  A
O254       Mn261   2.177       .  S
O254       Mn272   2.122       .  S
O254       Mn276   2.168       .  S
O254       Mn708   2.117       .  S
O255       Mn289   2.068       .  S
O255        C265   1.267       .  A
O256       Mn272   2.097       .  S
O256        C279   1.273       .  A
O257       Mn276   2.138       .  S
O257        C284   1.255       .  A
O258      Mn1149   1.949       .  S
O258       Mn278   1.954       .  S
O258        C274   1.218       .  S
C259        C377   1.483       .  S
C259        O262   1.257       .  A
C259        O285   1.214       .  S
O260      Mn1140   2.117       .  S
O260       Mn261   2.178       .  S
O260       Mn294   2.118       .  S
O260       Mn276   2.181       .  S
Mn261      O1150   2.127       .  S
Mn261       O266   2.102       .  S
Mn261       O723   2.130       .  S
Mn261      O1557   2.176       .  S
O262      Mn1136   2.140   1_455  S
O263       Mn270   2.079       .  S
O263        C265   1.269       .  A
C264        C354   1.480       .  S
C264        O290   1.253       .  A
C264        O277   1.216       .  S
C265        C421   1.458       .  S
O266        C291   1.255       .  A
O267      Mn1551   2.188   1_445  S
O267       Mn270   2.115       .  S
O267       Mn289   2.113       .  S
O267      Mn1566   2.178   1_445  S
O268       Mn272   1.962       .  S
O268       Mn294   1.961       .  S
O268        C291   1.219       .  S
C269        C333   1.475       .  S
C269       O1155   1.266       .  A
C269        O271   1.271       .  A
Mn270       O283   2.094       .  S
Mn270       O707   1.993   1_545  S
Mn270       O715   1.976   1_545  S
O271       Mn294   2.096       .  S
Mn272       O288   2.096       .  S
Mn272       O282   1.956       .  S
O273       Mn278   2.095       .  S
O273        C705   1.272   1_545  A
C274        C323   1.478       .  S
C274        O292   1.251       .  A
C275        C347   1.478       .  S
C275        O703   1.271       .  A
C275        O288   1.272       .  A
Mn276      O1122   2.120       .  S
Mn276       O722   2.102       .  S
Mn276      O1557   2.178       .  S
O277       Mn700   1.959       .  S
O277       Mn280   1.955       .  S
Mn278       O684   2.110   1_545  S
Mn278       O296   1.949       .  S
C279        C364   1.482       .  S
C279        O682   1.273       .  A
Mn280       O287   2.105       .  S
Mn280       O295   2.098       .  S
Mn280      O1120   2.113   1_455  S
Mn280       O285   1.958       .  S
C281        C310   1.484       .  S
C281       O1147   1.273       .  A
C281        O297   1.273       .  A
O282       Mn294   1.947       .  S
O282        C284   1.216       .  S
C284        C411   1.486       .  S
O285       Mn700   1.947       .  S
O286       Mn289   2.095       .  S
O287       C1141   1.274   1_455  A
Mn289      O1156   1.981   1_455  S
Mn289      O1118   1.984   1_455  S
O290      Mn1121   2.116   1_455  S
C291        C391   1.477       .  S
O292       Mn706   2.105   1_545  S
O293       Mn691   2.120   1_545  S
O293        C298   1.254       .  A
Mn294       O297   2.093       .  S
O295       C1129   1.273   1_455  A
O296      Mn1149   1.956       .  S
O296        C298   1.215       .  S
C298        C303   1.473       .  S
C299        C300   1.409       .  A
C299        C304   1.405       .  A
C299        H305   1.083       .  S
C300       C1161   1.401       .  A
C301       C1160   1.397   1_455  A
C301        C302   1.380       .  A
C301        H306   1.083       .  S
C302       C1163   1.408   1_455  A
C302        H307   1.086       .  S
C303       C1162   1.405       .  A
C303        C304   1.403       .  A
C304        H308   1.083       .  S
C309       C1170   1.407   1_455  A
C309        C314   1.400       .  A
C309        H315   1.083       .  S
C310       C1169   1.409       .  A
C310        C311   1.405       .  A
C311        C312   1.395       .  A
C311        H316   1.083       .  S
C312        C313   1.402       .  A
C312        H317   1.083       .  S
C313       C1174   1.405       .  A
C314       C1173   1.404   1_455  A
C314        H318   1.084       .  S
C319       C1180   1.405       .  A
C319        C324   1.389       .  A
C319        H325   1.083       .  S
C320       C1179   1.405       .  A
C320        C321   1.409       .  A
C321        C322   1.406       .  A
C321        H326   1.083       .  S
C322        C323   1.406       .  A
C322        H327   1.083       .  S
C323       C1184   1.402       .  A
C324       C1183   1.403       .  A
C324        H328   1.083       .  S
C329        C330   1.401       .  A
C329        C334   1.398       .  A
C329        H335   1.083       .  S
C330       C1191   1.400       .  A
C331       C1190   1.402   1_455  A
C331        C332   1.402       .  A
C331        H336   1.083       .  S
C332       C1193   1.409   1_455  A
C332        H337   1.083       .  S
C333       C1192   1.407       .  A
C333        C334   1.405       .  A
C334        H338   1.083       .  S
C339        C340   1.349       .  D
C339        H341   1.085       .  S
C340       H1202   1.085       .  S
H342       C1200   1.087       .  S
C343        C344   1.403       .  A
C343        C348   1.402       .  A
C343        H779   1.083       .  S
C344        C345   1.403       .  A
C345        C346   1.396       .  A
C345        H350   1.084       .  S
C346        C347   1.404       .  A
C346        H351   1.083       .  S
C347        C348   1.408       .  A
C348        H782   1.083       .  S
H349        C773   1.084       .  S
H352        C778   1.083       .  S
C353        C354   1.405       .  A
C353        C358   1.389       .  A
C353        H359   1.083       .  S
C354        C355   1.406       .  A
C355        C356   1.406       .  A
C355        H360   1.083       .  S
C356        C357   1.409       .  A
C356        H361   1.083       .  S
C357        C358   1.404       .  A
C358        H362   1.083       .  S
C363        C364   1.408       .  A
C363        C368   1.403       .  A
C363        H369   1.083       .  S
C364        C365   1.406       .  A
C365        C366   1.395       .  A
C365        H370   1.083       .  S
C366        C367   1.401       .  A
C366        H371   1.084       .  S
C367        C368   1.404       .  A
C368        H372   1.083       .  S
C373        C374   1.411       .  A
C373        C378   1.410       .  A
C373        H379   1.083       .  S
C374        C375   1.401       .  A
C375        C376   1.389       .  A
C375        H380   1.083       .  S
C376        C377   1.406       .  A
C376        H381   1.083       .  S
C377        C378   1.405       .  A
C378        H382   1.083       .  S
C383        C384   1.341       .  D
C383        H385   1.085       .  S
C384        H386   1.086       .  S
C387        C388   1.404       .  A
C387        C392   1.393       .  A
C387        H393   1.083       .  S
C388        C389   1.408       .  A
C389        C390   1.399       .  A
C389        H394   1.083       .  S
C390        C391   1.403       .  A
C390        H395   1.083       .  S
C391        C392   1.406       .  A
C392        H396   1.083       .  S
C397        C398   1.410       .  A
C397        C402   1.402       .  A
C397        H403   1.083       .  S
C398        C399   1.407       .  A
C399        C400   1.398       .  A
C399        H404   1.083       .  S
C400        C401   1.402       .  A
C400        H405   1.084       .  S
C401        C402   1.402       .  A
C402        H406   1.083       .  S
C407        C408   1.410       .  A
C407        C412   1.415       .  A
C407        H413   1.083       .  S
C408        C409   1.403       .  A
C409        C410   1.388       .  A
C409        H414   1.084       .  S
C410        C411   1.403       .  A
C410        H415   1.083       .  S
C411        C412   1.409       .  A
C412        H416   1.083       .  S
C417        C418   1.402       .  A
C417        C422   1.395       .  A
C417        H423   1.083       .  S
C418        C419   1.401       .  A
C419        C420   1.391       .  A
C419        H424   1.083       .  S
C420        C421   1.402       .  A
C420        H425   1.084       .  S
C421        C422   1.401       .  A
C422        H426   1.083       .  S
C427        C428   1.333       .  D
C427        H429   1.087       .  S
C428        H430   1.088       .  S
C431        N432   1.366       .  A
C431        N436   1.355       .  A
C431        C633   1.479       .  S
N432        C433   1.369       .  A
C433        N434   1.352       .  A
C433        C642   1.474       .  S
N434        C435   1.350       .  A
C435        N436   1.355       .  A
C435        C623   1.471       .  S
C437        N438   1.352       .  A
C437        N442   1.352       .  A
C437        C616   1.464       .  S
N438        C439   1.356       .  A
C439        N440   1.369       .  A
C439        C858   1.476       .  S
N440        C441   1.363       .  A
C441        N442   1.357       .  A
C441        C603   1.486       .  S
C443        N444   1.356       .  A
C443        N448   1.350       .  A
C443        C582   1.467       .  S
N444        C445   1.361       .  A
C445        N446   1.367       .  A
C445        C598   1.478       .  S
N446        C447   1.360       .  A
C447        N448   1.354       .  A
C447        C589   1.484       .  S
C449        N450   1.362       .  A
C449        N454   1.354       .  A
C449        C559   1.473       .  S
N450        C451   1.367       .  A
C451        N452   1.359       .  A
C451        C814   1.480       .  S
N452        C453   1.357       .  A
C453        N454   1.357       .  A
C453        C572   1.484       .  S
C455        N456   1.363       .  A
C455        N460   1.353       .  A
C455        C545   1.472       .  S
N456        C457   1.368       .  A
C457        N458   1.355       .  A
C457        C554   1.475       .  S
N458        C459   1.354       .  A
C459        N460   1.355       .  A
C459        C535   1.476       .  S
C461        N462   1.352       .  A
C461        N466   1.355       .  A
C461        C528   1.468       .  S
N462        C463   1.355       .  A
C463        N464   1.361       .  A
C463        C515   1.485       .  S
N464        C465   1.367       .  A
C465        N466   1.359       .  A
C465        C770   1.478       .  S
O467       Mn493   2.093       .  S
C468        C613   1.469       .  S
C468        O501   1.270       .  A
C468        O498   1.268       .  A
O469       Mn476   2.183       .  S
O469       Mn487   2.115       .  S
O469       Mn491   2.181       .  S
O470       Mn504   2.106       .  S
O470        C480   1.273       .  A
O471       Mn487   2.088       .  S
O471        C494   1.269       .  A
O472       Mn491   2.121       .  S
O472        C499   1.253       .  A
O473      Mn1364   1.966       .  S
O473       Mn493   1.955       .  S
O473        C489   1.218       .  S
C474        C592   1.479       .  S
C474        O477   1.253       .  A
C474        O500   1.217       .  S
O475      Mn1355   2.112       .  S
O475       Mn476   2.181       .  S
O475       Mn509   2.114       .  S
O475       Mn491   2.177       .  S
Mn476      O1365   2.120       .  S
Mn476       O481   2.125       .  S
Mn476       O912   2.176   1_565  S
O477      Mn1351   2.122   1_455  S
O478       Mn485   2.087       .  S
O478        C480   1.271       .  A
C479        C569   1.480       .  S
C479        O505   1.254       .  A
C479        O492   1.215       .  S
C480        C636   1.484       .  S
O481        C506   1.254       .  A
O482       Mn906   2.184   1_455  S
O482       Mn485   2.109       .  S
O482       Mn504   2.112       .  S
O482       Mn921   2.173   1_455  S
O483       Mn487   1.968       .  S
O483       Mn509   1.980       .  S
O483        C506   1.218       .  S
C484        C548   1.488       .  S
C484       O1370   1.272       .  A
C484        O486   1.272       .  A
Mn485       O498   2.079       .  S
O486       Mn509   2.098       .  S
Mn487       O503   2.085       .  S
Mn487       O497   2.000       .  S
O488       Mn493   2.081       .  S
C489        C538   1.472       .  S
C489        O507   1.254       .  A
C490        C562   1.486       .  S
C490        O503   1.269       .  A
Mn491      O1337   2.132       .  S
Mn491       O912   2.171   1_565  S
O492       Mn495   1.956       .  S
Mn493       O511   1.946       .  S
C494        C579   1.472       .  S
Mn495       O502   2.114       .  S
Mn495       O510   2.116       .  S
Mn495      O1335   2.117   1_455  S
Mn495       O500   1.959       .  S
C496        C525   1.466       .  S
C496       O1362   1.271       .  A
C496        O512   1.266       .  A
O497       Mn509   1.996       .  S
O497        C499   1.234       .  A
C499        C626   1.467       .  S
O501       Mn504   2.086       .  S
O502       C1356   1.275   1_455  A
Mn504      O1333   1.943   1_455  S
Mn504      O1371   1.949   1_455  S
O505      Mn1336   2.122   1_455  S
C506        C606   1.481       .  S
O508        C513   1.253       .  A
Mn509       O512   2.065       .  S
O510       C1344   1.275   1_455  A
O511      Mn1364   1.947       .  S
O511        C513   1.214       .  S
C513        C518   1.480       .  S
C514        C515   1.410       .  A
C514        C519   1.410       .  A
C514        H520   1.083       .  S
C515       C1376   1.404       .  A
C516       C1375   1.398       .  A
C516        C517   1.387       .  A
C516        H521   1.083       .  S
C517       C1378   1.407       .  A
C517        H522   1.083       .  S
C518       C1377   1.404       .  A
C518        C519   1.406       .  A
C519        H523   1.083       .  S
C524       C1385   1.408   1_455  A
C524        C529   1.404       .  A
C524        H530   1.083       .  S
C525       C1384   1.403       .  A
C525        C526   1.403       .  A
C526        C527   1.391       .  A
C526        H531   1.084       .  S
C527        C528   1.402       .  A
C527        H532   1.084       .  S
C528       C1389   1.404       .  A
C529       C1388   1.405   1_455  A
C529        H533   1.083       .  S
C534       C1395   1.401       .  A
C534        C539   1.387       .  A
C534        H540   1.083       .  S
C535       C1394   1.403       .  A
C535        C536   1.408       .  A
C536        C537   1.399       .  A
C536        H541   1.083       .  S
C537        C538   1.403       .  A
C537        H542   1.083       .  S
C538       C1399   1.405       .  A
C539       C1398   1.404       .  A
C539        H543   1.084       .  S
C544        C545   1.402       .  A
C544        C549   1.398       .  A
C544        H550   1.084       .  S
C545       C1406   1.402       .  A
C546       C1405   1.404   1_455  A
C546        C547   1.405       .  A
C546        H551   1.083       .  S
C547       C1408   1.408   1_455  A
C547        H552   1.083       .  S
C548       C1407   1.410       .  A
C548        C549   1.407       .  A
C549        H553   1.083       .  S
C554        C555   1.337       .  D
C554        H556   1.086       .  S
C555        C680   1.476   1_554  S
C555       H1417   1.086       .  S
H557       C1415   1.087       .  S
C558        C559   1.402   1_545  A
C558        C563   1.402       .  A
C559        C560   1.402       .  A
C560        C561   1.399       .  A
C560        H565   1.083       .  S
C561        C562   1.408       .  A
C561        H566   1.083       .  S
C562        C563   1.408   1_565  A
C568        C569   1.406       .  A
C568        C573   1.390       .  A
C568        H574   1.083       .  S
C569        C570   1.404       .  A
C570        C571   1.404       .  A
C570        H575   1.083       .  S
C571        C572   1.410       .  A
C571        H576   1.083       .  S
C572        C573   1.403       .  A
C573        H577   1.083       .  S
C578        C579   1.408       .  A
C578        C583   1.402       .  A
C578        H584   1.083       .  S
C579        C580   1.402   1_565  A
C580        C581   1.392       .  A
C580        H585   1.083       .  S
C581        C582   1.402   1_545  A
C581        H586   1.084       .  S
C582        C583   1.402       .  A
C583        H587   1.083       .  S
C588        C589   1.409       .  A
C588        C593   1.409       .  A
C588        H594   1.083       .  S
C589        C590   1.404       .  A
C590        C591   1.386       .  A
C590        H595   1.083       .  S
C591        C592   1.402       .  A
C591        H596   1.084       .  S
C592        C593   1.407       .  A
C593        H597   1.083       .  S
C598        C599   1.341       .  D
C598        H600   1.085       .  S
C599        C666   1.475   1_554  S
C599        H601   1.086       .  S
C602        C603   1.404       .  A
C602        C607   1.388       .  A
C602        H608   1.083       .  S
C603        C604   1.410       .  A
C604        C605   1.411       .  A
C604        H609   1.083       .  S
C605        C606   1.407       .  A
C605        H610   1.083       .  S
C606        C607   1.403       .  A
C607        H611   1.084       .  S
C612        C613   1.406       .  A
C612        C617   1.398       .  A
C612        H618   1.084       .  S
C613        C614   1.402       .  A
C614        C615   1.393       .  A
C614        H619   1.083       .  S
C615        C616   1.401       .  A
C615        H620   1.083       .  S
C616        C617   1.402       .  A
C617        H621   1.083       .  S
C622        C623   1.411       .  A
C622        C627   1.399       .  A
C622        H628   1.083       .  S
C623        C624   1.398       .  A
C624        C625   1.382       .  A
C624        H629   1.082       .  S
C625        C626   1.409       .  A
C625        H630   1.086       .  S
C626        C627   1.398       .  A
C627        H631   1.080       .  S
C632        C633   1.404       .  A
C632        C637   1.396       .  A
C632        H638   1.084       .  S
C633        C634   1.405       .  A
C634        C635   1.406       .  A
C634        H639   1.083       .  S
C635        C636   1.408       .  A
C635        H640   1.083       .  S
C636        C637   1.406       .  A
C637        H641   1.083       .  S
C642        C643   1.335       .  D
C642        H644   1.087       .  S
C643        C654   1.478   1_554  S
C643        H645   1.087       .  S
C646        N647   1.363       .  A
C646        N651   1.355       .  A
C646        C848   1.474       .  S
N647        C648   1.367       .  A
C648        N649   1.355       .  A
C648        C857   1.475       .  S
N649        C650   1.354       .  A
C650        N651   1.357       .  A
C650        C838   1.478       .  S
C652        N653   1.353       .  A
C652        N657   1.351       .  A
C652        C831   1.465       .  S
N653        C654   1.357       .  A
C654        N655   1.371       .  A
N655        C656   1.364       .  A
C656        N657   1.356       .  A
C656        C818   1.487       .  S
C658        N659   1.356       .  A
C658        N663   1.353       .  A
C658        C797   1.472       .  S
N659        C660   1.360       .  A
C660        N661   1.368       .  A
C660        C813   1.481       .  S
N661        C662   1.363       .  A
C662        N663   1.357       .  A
C662        C804   1.488       .  S
C664        N665   1.361       .  A
C664        N669   1.354       .  A
C664        C774   1.477       .  S
N665        C666   1.366       .  A
C666        N667   1.357       .  A
N667        C668   1.354       .  A
C668        N669   1.356       .  A
C668        C787   1.477       .  S
C670        N671   1.361       .  A
C670        N675   1.354       .  A
C670        C760   1.470       .  S
N671        C672   1.366       .  A
C672        N673   1.357       .  A
C672        C769   1.476       .  S
N673        C674   1.355       .  A
C674        N675   1.355       .  A
C674        C750   1.479       .  S
C676        N677   1.352       .  A
C676        N681   1.353       .  A
C676        C743   1.463       .  S
N677        C678   1.357       .  A
C678        N679   1.363       .  A
C678        C730   1.486       .  S
N679        C680   1.368       .  A
C680        N681   1.356       .  A
O682       Mn708   2.094       .  S
C683        C828   1.465       .  S
C683        O716   1.269       .  A
C683        O713   1.271       .  A
O684       Mn691   2.173       .  S
O684       Mn702   2.117       .  S
O684       Mn706   2.178       .  S
O685       Mn719   2.095       .  S
O685        C695   1.272       .  A
O686       Mn702   2.102       .  S
O686        C709   1.273       .  A
O687       Mn706   2.110       .  S
O687        C714   1.254       .  A
O688      Mn1579   1.966       .  S
O688       Mn708   1.962       .  S
O688        C704   1.219       .  S
C689        C807   1.483       .  S
C689        O692   1.255       .  A
C689        O715   1.218       .  S
O690      Mn1570   2.116       .  S
O690       Mn691   2.179       .  S
O690       Mn724   2.113       .  S
O690       Mn706   2.159       .  S
Mn691      O1580   2.115       .  S
Mn691       O696   2.132       .  S
Mn691      O1127   2.172   1_565  S
O692      Mn1566   2.126   1_455  S
O693       Mn700   2.109       .  S
O693        C695   1.274       .  A
C694        C784   1.471       .  S
C694        O720   1.253       .  A
C694        O707   1.236       .  A
C695        C851   1.492       .  S
O696        C721   1.254       .  A
O697      Mn1121   2.176   1_455  S
O697       Mn700   2.114       .  S
O697       Mn719   2.120       .  S
O697      Mn1136   2.177   1_455  S
O698       Mn702   1.956       .  S
O698       Mn724   1.953       .  S
O698        C721   1.217       .  S
C699        C763   1.484       .  S
C699       O1585   1.273       .  A
C699        O701   1.274       .  A
Mn700       O713   2.090       .  S
O701       Mn724   2.094       .  S
Mn702       O718   2.103       .  S
Mn702       O712   1.955       .  S
O703       Mn708   2.090       .  S
C704        C753   1.475       .  S
C704        O722   1.254       .  A
C705        C777   1.484       .  S
C705        O718   1.273       .  A
Mn706      O1552   2.134       .  S
Mn706      O1127   2.179   1_565  S
O707       Mn710   1.997       .  S
Mn708       O726   1.946       .  S
C709        C794   1.478       .  S
Mn710       O717   2.077       .  S
Mn710       O725   2.060       .  S
Mn710      O1550   2.112   1_455  S
Mn710       O715   1.973       .  S
C711        C740   1.473       .  S
C711       O1577   1.271       .  A
C711        O727   1.269       .  A
O712       Mn724   1.952       .  S
O712        C714   1.215       .  S
C714        C841   1.475       .  S
O716       Mn719   2.077       .  S
O717       C1571   1.269   1_455  A
Mn719      O1548   1.950   1_455  S
Mn719      O1586   1.959   1_455  S
O720      Mn1551   2.124   1_455  S
C721        C821   1.485       .  S
O723        C728   1.253       .  A
Mn724       O727   2.076       .  S
O725       C1559   1.265   1_455  A
O726      Mn1579   1.949       .  S
O726        C728   1.215       .  S
C728        C733   1.482       .  S
C729        C730   1.409       .  A
C729        C734   1.410       .  A
C729        H735   1.083       .  S
C730       C1591   1.404       .  A
C731       C1590   1.406       .  A
C731        C732   1.387       .  A
C731        H736   1.083       .  S
C732       C1593   1.403       .  A
C732        H737   1.083       .  S
C733       C1592   1.404       .  A
C733        C734   1.407       .  A
C734        H738   1.083       .  S
C739       C1600   1.405       .  A
C739        C744   1.397       .  A
C739        H745   1.084   1_655  S
C740       C1599   1.406       .  A
C740        C741   1.405       .  A
C741        C742   1.392       .  A
C741        H746   1.083       .  S
C742        C743   1.399       .  A
C742        H747   1.084       .  S
C743       C1604   1.402       .  A
C744       C1603   1.402       .  A
C744        H748   1.083   1_655  S
C749       C1610   1.406   1_455  A
C749        C754   1.391       .  A
C749        H755   1.083       .  S
C750       C1609   1.404       .  A
C750        C751   1.408       .  A
C751        C752   1.400       .  A
C751        H756   1.083       .  S
C752        C753   1.404       .  A
C752        H757   1.083       .  S
C753       C1614   1.405       .  A
C754       C1613   1.402   1_455  A
C754        H758   1.083       .  S
C759        C760   1.401       .  A
C759        C764   1.396       .  A
C759        H765   1.084       .  S
C760       C1621   1.402       .  A
C761       C1620   1.400   1_455  A
C761        C762   1.390       .  A
C761        H766   1.083       .  S
C762       C1623   1.404   1_455  A
C762        H767   1.084       .  S
C763       C1622   1.410       .  A
C763        C764   1.406       .  A
C764        H768   1.083       .  S
C769        C770   1.340       .  D
C769        H771   1.086       .  S
C770       H1632   1.086       .  S
H772       C1630   1.087       .  S
C773        C774   1.403   1_545  A
C773        C778   1.395       .  A
C774        C775   1.405       .  A
C775        C776   1.406       .  A
C775        H780   1.083       .  S
C776        C777   1.409       .  A
C776        H781   1.083       .  S
C777        C778   1.405   1_565  A
C783        C784   1.408       .  A
C783        C788   1.382       .  A
C783        H789   1.086       .  S
C784        C785   1.401       .  A
C785        C786   1.404       .  A
C785        H790   1.080       .  S
C786        C787   1.411       .  A
C786        H791   1.083       .  S
C787        C788   1.400       .  A
C788        H792   1.082       .  S
C793        C794   1.404       .  A
C793        C798   1.398       .  A
C793        H799   1.083       .  S
C794        C795   1.407       .  A
C795        C796   1.399       .  A
C795        H800   1.084   1_565  S
C796        C797   1.402       .  A
C796        H801   1.083   1_565  S
C797        C798   1.404       .  A
C798        H802   1.083       .  S
C803        C804   1.410       .  A
C803        C808   1.411       .  A
C803        H809   1.083   1_565  S
C804        C805   1.405       .  A
C805        C806   1.390       .  A
C805        H810   1.083       .  S
C806        C807   1.403       .  A
C806        H811   1.084       .  S
C807        C808   1.407       .  A
C808        H812   1.083   1_565  S
C813        C814   1.342       .  D
C813        H815   1.086       .  S
C814        H816   1.086       .  S
C817        C818   1.404       .  A
C817        C822   1.388       .  A
C817        H823   1.083       .  S
C818        C819   1.409       .  A
C819        C820   1.413       .  A
C819        H824   1.083       .  S
C820        C821   1.409       .  A
C820        H825   1.083       .  S
C821        C822   1.404       .  A
C822        H826   1.084       .  S
C827        C828   1.403       .  A
C827        C832   1.398       .  A
C827        H833   1.084       .  S
C828        C829   1.402       .  A
C829        C830   1.392       .  A
C829        H834   1.083       .  S
C830        C831   1.402       .  A
C830        H835   1.084       .  S
C831        C832   1.403       .  A
C832        H836   1.083       .  S
C837        C838   1.409       .  A
C837        C842   1.400       .  A
C837        H843   1.083       .  S
C838        C839   1.402       .  A
C839        C840   1.389       .  A
C839        H844   1.083       .  S
C840        C841   1.406       .  A
C840        H845   1.083       .  S
C841        C842   1.402       .  A
C842        H846   1.083       .  S
C847        C848   1.403       .  A
C847        C852   1.401       .  A
C847        H853   1.083       .  S
C848        C849   1.402       .  A
C849        C850   1.403       .  A
C849        H854   1.083       .  S
C850        C851   1.410       .  A
C850        H855   1.083       .  S
C851        C852   1.408       .  A
C852        H856   1.083       .  S
C857        C858   1.337       .  D
C857        H859   1.087       .  S
C858        H860   1.087       .  S
C861        N862   1.358       .  A
C861        N866   1.350       .  A
C861       C1063   1.472       .  S
N862        C863   1.362       .  A
C863        N864   1.367       .  A
C863       C1072   1.479       .  S
N864        C865   1.359       .  A
C865        N866   1.353       .  A
C865       C1053   1.481       .  S
C867        N868   1.361       .  A
C867        N872   1.354       .  A
C867       C1046   1.475       .  S
N868        C869   1.367       .  A
C869        N870   1.357       .  A
C869       C1288   1.476       .  S
N870        C871   1.355       .  A
C871        N872   1.357       .  A
C871       C1033   1.480       .  S
C873        N874   1.351       .  A
C873        N878   1.350       .  A
C873       C1012   1.464       .  S
N874        C875   1.355       .  A
C875        N876   1.373       .  A
C875       C1028   1.478       .  S
N876        C877   1.367       .  A
C877        N878   1.356       .  A
C877       C1019   1.493       .  S
C879        N880   1.369       .  A
C879        N884   1.359       .  A
C879        C989   1.487       .  S
N880        C881   1.372       .  A
C881        N882   1.346       .  A
C881       C1244   1.475       .  S
N882        C883   1.346       .  A
C883        N884   1.358       .  A
C883       C1002   1.469       .  S
C885        N886   1.351       .  A
C885        N890   1.350       .  A
C885        C975   1.458       .  S
N886        C887   1.358       .  A
C887        N888   1.369       .  A
C887        C984   1.478       .  S
N888        C889   1.365       .  A
C889        N890   1.355       .  A
C889        C965   1.490       .  S
C891        N892   1.355       .  A
C891        N896   1.357       .  A
C891        C958   1.477       .  S
N892        C893   1.358       .  A
C893        N894   1.360       .  A
C893        C945   1.486       .  S
N894        C895   1.366       .  A
C895        N896   1.361       .  A
C895       C1200   1.478       .  S
O897       Mn923   2.091       .  S
O897       C1354   1.271   1_545  A
C898       C1043   1.487       .  S
C898        O931   1.274       .  A
C898        O928   1.273       .  A
O899       Mn906   2.168       .  S
O899       Mn917   2.119       .  S
O899       Mn921   2.192       .  S
O899      Mn1353   2.108       .  S
O900       Mn934   2.089       .  S
O900        C910   1.271       .  A
O901       Mn917   2.083       .  S
O901        C924   1.268       .  A
O902       Mn921   2.111       .  S
O902        C929   1.253       .  A
O903       Mn923   1.965       .  S
O903        C919   1.221       .  S
C904       C1022   1.487       .  S
C904        O907   1.253       .  A
C904        O930   1.215       .  S
O905       Mn906   2.170       .  S
O905       Mn939   2.113       .  S
O905       Mn921   2.165       .  S
Mn906       O911   2.120       .  S
Mn906      O1368   2.106       .  S
O908       Mn915   2.088       .  S
O908        C910   1.270       .  A
C909        C999   1.463       .  S
C909        O935   1.254       .  A
C909        O922   1.231       .  A
C910       C1066   1.469       .  S
O911        C936   1.254       .  A
O912       Mn915   2.111       .  S
O912       Mn934   2.116       .  S
O913       Mn917   1.944       .  S
O913       Mn939   1.951       .  S
O913        C936   1.214       .  S
C914        C978   1.469       .  S
C914        O916   1.273       .  A
Mn915       O928   2.101       .  S
Mn915      O1360   1.955   1_545  S
Mn915      O1352   1.946   1_545  S
O916       Mn939   2.095       .  S
Mn917       O933   2.122       .  S
Mn917       O927   1.964       .  S
O918       Mn923   2.110       .  S
O918       C1350   1.274   1_545  A
C919        C968   1.486       .  S
C919        O937   1.254       .  A
C920        C992   1.499       .  S
C920       O1348   1.275       .  A
C920        O933   1.277       .  A
Mn921      O1367   2.119       .  S
O922      Mn1345   1.995       .  S
O922       Mn925   1.997       .  S
Mn923      O1329   2.116   1_545  S
Mn923       O941   1.947       .  S
C924       C1009   1.463       .  S
C924       O1327   1.266       .  A
Mn925       O932   2.107       .  S
Mn925       O940   2.080       .  S
Mn925       O930   1.969       .  S
C926        C955   1.476       .  S
C926        O942   1.271       .  A
O927       Mn939   1.966       .  S
O927        C929   1.220       .  S
C929       C1056   1.477       .  S
O930      Mn1345   1.964       .  S
O931       Mn934   2.101       .  S
C936       C1036   1.476       .  S
O937      Mn1351   2.113   1_545  S
O938      Mn1336   2.136   1_545  S
O938        C943   1.256       .  A
Mn939       O942   2.091       .  S
O941        C943   1.215       .  S
C943        C948   1.482       .  S
C944        C945   1.411       .  A
C944        C949   1.410       .  A
C944        H950   1.083   1_655  S
C946        C947   1.387       .  A
C946        H951   1.083       .  S
C947        H952   1.083       .  S
C948        C949   1.406       .  A
C949        H953   1.083   1_655  S
C954        C959   1.406       .  A
C954        H960   1.083       .  S
C955        C956   1.403       .  A
C956        C957   1.394       .  A
C956        H961   1.083       .  S
C957        C958   1.403       .  A
C957        H962   1.083       .  S
C959        H963   1.083       .  S
C964        C969   1.390       .  A
C964        H970   1.083       .  S
C965        C966   1.408       .  A
C966        C967   1.410       .  A
C966        H971   1.083       .  S
C967        C968   1.409       .  A
C967        H972   1.083       .  S
C969        H973   1.083       .  S
C974        C975   1.401       .  A
C974        C979   1.396       .  A
C974        H980   1.083       .  S
C976        C977   1.400       .  A
C976        H981   1.083       .  S
C977        H982   1.084       .  S
C978        C979   1.403       .  A
C979        H983   1.084       .  S
C984        C985   1.354       .  D
C984        H986   1.087       .  S
C985       C1110   1.479   1_554  S
C988        C989   1.403       .  A
C988        C993   1.401       .  A
C988       H1424   1.083       .  S
C989        C990   1.407       .  A
C990        C991   1.411       .  A
C990        H995   1.083       .  S
C991        C992   1.411       .  A
C991        H996   1.083       .  S
C992        C993   1.409       .  A
C993       H1427   1.083       .  S
H994       C1418   1.083       .  S
H997       C1423   1.083       .  S
C998        C999   1.411       .  A
C998       C1003   1.382       .  A
C998       H1004   1.086       .  S
C999       C1000   1.395       .  A
C1000      C1001   1.397       .  A
C1000      H1005   1.080       .  S
C1001      C1002   1.412       .  A
C1001      H1006   1.083       .  S
C1002      C1003   1.395       .  A
C1003      H1007   1.082       .  S
C1008      C1009   1.402       .  A
C1008      C1013   1.393       .  A
C1008      H1014   1.083       .  S
C1009      C1010   1.404       .  A
C1010      C1011   1.396       .  A
C1010      H1015   1.084       .  S
C1011      C1012   1.402       .  A
C1011      H1016   1.083       .  S
C1012      C1013   1.402       .  A
C1013      H1017   1.083       .  S
C1018      C1019   1.411       .  A
C1018      C1023   1.415       .  A
C1018      H1024   1.083       .  S
C1019      C1020   1.406       .  A
C1020      C1021   1.386       .  A
C1020      H1025   1.083       .  S
C1021      C1022   1.403       .  A
C1021      H1026   1.083       .  S
C1022      C1023   1.409       .  A
C1023      H1027   1.082       .  S
C1028      C1029   1.334       .  D
C1028      H1030   1.087       .  S
C1029      C1096   1.477   1_554  S
C1029      H1031   1.088       .  S
C1032      C1033   1.402       .  A
C1032      C1037   1.388       .  A
C1032      H1038   1.083       .  S
C1033      C1034   1.410       .  A
C1034      C1035   1.403       .  A
C1034      H1039   1.083       .  S
C1035      C1036   1.403       .  A
C1035      H1040   1.083       .  S
C1036      C1037   1.406       .  A
C1037      H1041   1.083       .  S
C1042      C1043   1.410       .  A
C1042      C1047   1.404       .  A
C1042      H1048   1.083       .  S
C1043      C1044   1.406       .  A
C1044      C1045   1.399       .  A
C1044      H1049   1.083       .  S
C1045      C1046   1.403       .  A
C1045      H1050   1.084       .  S
C1046      C1047   1.403       .  A
C1047      H1051   1.083       .  S
C1052      C1053   1.408       .  A
C1052      C1057   1.408       .  A
C1052      H1058   1.083       .  S
C1053      C1054   1.404       .  A
C1054      C1055   1.386       .  A
C1054      H1059   1.083       .  S
C1055      C1056   1.401       .  A
C1055      H1060   1.083       .  S
C1056      C1057   1.407       .  A
C1057      H1061   1.083       .  S
C1062      C1063   1.403       .  A
C1062      C1067   1.401       .  A
C1062      H1068   1.083       .  S
C1063      C1064   1.405       .  A
C1064      C1065   1.393       .  A
C1064      H1069   1.083       .  S
C1065      C1066   1.400       .  A
C1065      H1070   1.084       .  S
C1066      C1067   1.405       .  A
C1067      H1071   1.082       .  S
C1072      C1073   1.342       .  D
C1072      H1074   1.086       .  S
C1073      C1084   1.475   1_554  S
C1073      H1075   1.086       .  S
C1076      N1077   1.352       .  A
C1076      N1081   1.348       .  A
C1076      C1278   1.459       .  S
N1077      C1078   1.358       .  A
C1078      N1079   1.369       .  A
C1078      C1287   1.476       .  S
N1079      C1080   1.364       .  A
C1080      N1081   1.354       .  A
C1080      C1268   1.487       .  S
C1082      N1083   1.362       .  A
C1082      N1087   1.358       .  A
C1082      C1261   1.479       .  S
N1083      C1084   1.365       .  A
C1084      N1085   1.357       .  A
N1085      C1086   1.355       .  A
C1086      N1087   1.359       .  A
C1086      C1248   1.483       .  S
C1088      N1089   1.348       .  A
C1088      N1093   1.348       .  A
C1088      C1227   1.457       .  S
N1089      C1090   1.354       .  A
C1090      N1091   1.376       .  A
C1090      C1243   1.477       .  S
N1091      C1092   1.369       .  A
C1092      N1093   1.354       .  A
C1092      C1234   1.495       .  S
C1094      N1095   1.367       .  A
C1094      N1099   1.356       .  A
C1094      C1204   1.485       .  S
N1095      C1096   1.371       .  A
C1096      N1097   1.351       .  A
N1097      C1098   1.350       .  A
C1098      N1099   1.358       .  A
C1098      C1217   1.473       .  S
C1100      N1101   1.360       .  A
C1100      N1105   1.352       .  A
C1100      C1190   1.471       .  S
N1101      C1102   1.366       .  A
C1102      N1103   1.360       .  A
C1102      C1199   1.478       .  S
N1103      C1104   1.358       .  A
C1104      N1105   1.355       .  A
C1104      C1180   1.481       .  S
C1106      N1107   1.355       .  A
C1106      N1111   1.365       .  A
C1106      C1173   1.482       .  S
N1107      C1108   1.357       .  A
C1108      N1109   1.350       .  A
C1108      C1160   1.470       .  S
N1109      C1110   1.355       .  A
C1110      N1111   1.368       .  A
O1112     Mn1138   2.068       .  S
O1112      C1569   1.265   1_545  A
C1113      C1258   1.486       .  S
C1113      O1146   1.273       .  A
C1113      O1143   1.275       .  A
O1114     Mn1121   2.173       .  S
O1114     Mn1132   2.115       .  S
O1114     Mn1136   2.183       .  S
O1114     Mn1568   2.118       .  S
O1115     Mn1149   2.080       .  S
O1115      C1125   1.269       .  A
O1116     Mn1132   2.073       .  S
O1116      C1139   1.268       .  A
O1117     Mn1136   2.115       .  S
O1117      C1144   1.254       .  A
O1118     Mn1138   1.984       .  S
O1118      C1134   1.221       .  S
C1119      C1237   1.488       .  S
C1119      O1122   1.254       .  A
C1119      O1145   1.222       .  S
O1120     Mn1121   2.177       .  S
O1120     Mn1154   2.115       .  S
O1120     Mn1136   2.174       .  S
Mn1121     O1126   2.132       .  S
Mn1121     O1583   2.116       .  S
O1123     Mn1130   2.084       .  S
O1123      C1125   1.269       .  A
C1124      C1214   1.467       .  S
C1124      O1150   1.253       .  A
C1124      O1137   1.233       .  A
C1125      C1281   1.472       .  S
O1126      C1151   1.253       .  A
O1127     Mn1130   2.113       .  S
O1127     Mn1149   2.117       .  S
O1128     Mn1132   1.935       .  S
O1128     Mn1154   1.949       .  S
O1128      C1151   1.211       .  S
C1129      C1193   1.485       .  S
C1129      O1131   1.274       .  A
Mn1130     O1143   2.109       .  S
Mn1130     O1575   1.957   1_545  S
Mn1130     O1567   1.947   1_545  S
O1131     Mn1154   2.101       .  S
Mn1132     O1148   2.114       .  S
Mn1132     O1142   1.964       .  S
O1133     Mn1138   2.108       .  S
O1133      C1565   1.273   1_545  A
C1134      C1183   1.476       .  S
C1134      O1152   1.253       .  A
C1135      C1207   1.498       .  S
C1135      O1563   1.276       .  A
C1135      O1148   1.275       .  A
Mn1136     O1582   2.131       .  S
O1137     Mn1560   1.991       .  S
O1137     Mn1140   1.994       .  S
Mn1138     O1544   2.118   1_545  S
Mn1138     O1156   1.983       .  S
C1139      C1224   1.465       .  S
C1139      O1542   1.269       .  A
Mn1140     O1147   2.103       .  S
Mn1140     O1155   2.072       .  S
Mn1140     O1145   1.980       .  S
C1141      C1170   1.493       .  S
C1141      O1157   1.274       .  A
O1142     Mn1154   1.967       .  S
O1142      C1144   1.220       .  S
C1144      C1271   1.481       .  S
O1145     Mn1560   1.991       .  S
O1146     Mn1149   2.095       .  S
C1151      C1251   1.479       .  S
O1152     Mn1566   2.098   1_545  S
O1153     Mn1551   2.132   1_545  S
O1153      C1158   1.251       .  A
Mn1154     O1157   2.108       .  S
O1156      C1158   1.230       .  A
C1158      C1163   1.464       .  S
C1159      C1160   1.411       .  A
C1159      C1164   1.402       .  A
C1159      H1165   1.084       .  S
C1161      C1162   1.388       .  A
C1161      H1166   1.083       .  S
C1162      H1167   1.083       .  S
C1163      C1164   1.398       .  A
C1164      H1168   1.080       .  S
C1169      C1174   1.406       .  A
C1169      H1175   1.083       .  S
C1170      C1171   1.411       .  A
C1171      C1172   1.408       .  A
C1171      H1176   1.083       .  S
C1172      C1173   1.405       .  A
C1172      H1177   1.083       .  S
C1174      H1178   1.083       .  S
C1179      C1184   1.388       .  A
C1179      H1185   1.083       .  S
C1180      C1181   1.408       .  A
C1181      C1182   1.403       .  A
C1181      H1186   1.083       .  S
C1182      C1183   1.406       .  A
C1182      H1187   1.083       .  S
C1184      H1188   1.083       .  S
C1189      C1190   1.403       .  A
C1189      C1194   1.398       .  A
C1189      H1195   1.083       .  S
C1191      C1192   1.395       .  A
C1191      H1196   1.083       .  S
C1192      H1197   1.083       .  S
C1193      C1194   1.406       .  A
C1194      H1198   1.083       .  S
C1199      C1200   1.343       .  D
C1199      H1201   1.087       .  S
C1203      C1204   1.405       .  A
C1203      C1208   1.403       .  A
C1203      H1639   1.083       .  S
C1204      C1205   1.405       .  A
C1205      C1206   1.408       .  A
C1205      H1210   1.083       .  S
C1206      C1207   1.411       .  A
C1206      H1211   1.083       .  S
C1207      C1208   1.409       .  A
C1208      H1642   1.083       .  S
H1209      C1633   1.083       .  S
H1212      C1638   1.083       .  S
C1213      C1214   1.410       .  A
C1213      C1218   1.382       .  A
C1213      H1219   1.086       .  S
C1214      C1215   1.398       .  A
C1215      C1216   1.400       .  A
C1215      H1220   1.080       .  S
C1216      C1217   1.412       .  A
C1216      H1221   1.083       .  S
C1217      C1218   1.397       .  A
C1218      H1222   1.082       .  S
C1223      C1224   1.403       .  A
C1223      C1228   1.390       .  A
C1223      H1229   1.083       .  S
C1224      C1225   1.404       .  A
C1225      C1226   1.395       .  A
C1225      H1230   1.083       .  S
C1226      C1227   1.401       .  A
C1226      H1231   1.083       .  S
C1227      C1228   1.400       .  A
C1228      H1232   1.084       .  S
C1233      C1234   1.410       .  A
C1233      C1238   1.415       .  A
C1233      H1239   1.083       .  S
C1234      C1235   1.408       .  A
C1235      C1236   1.389       .  A
C1235      H1240   1.083       .  S
C1236      C1237   1.401       .  A
C1236      H1241   1.084       .  S
C1237      C1238   1.411       .  A
C1238      H1242   1.082       .  S
C1243      C1244   1.330       .  D
C1243      H1245   1.087       .  S
C1244      H1246   1.088       .  S
C1247      C1248   1.401       .  A
C1247      C1252   1.390       .  A
C1247      H1253   1.083       .  S
C1248      C1249   1.412       .  A
C1249      C1250   1.405       .  A
C1249      H1254   1.083       .  S
C1250      C1251   1.402       .  A
C1250      H1255   1.083       .  S
C1251      C1252   1.407       .  A
C1252      H1256   1.083       .  S
C1257      C1258   1.408       .  A
C1257      C1262   1.406       .  A
C1257      H1263   1.083       .  S
C1258      C1259   1.406       .  A
C1259      C1260   1.398       .  A
C1259      H1264   1.083       .  S
C1260      C1261   1.403       .  A
C1260      H1265   1.083       .  S
C1261      C1262   1.405       .  A
C1262      H1266   1.083       .  S
C1267      C1268   1.409       .  A
C1267      C1272   1.410       .  A
C1267      H1273   1.083       .  S
C1268      C1269   1.406       .  A
C1269      C1270   1.385       .  A
C1269      H1274   1.083       .  S
C1270      C1271   1.402       .  A
C1270      H1275   1.083       .  S
C1271      C1272   1.408       .  A
C1272      H1276   1.083       .  S
C1277      C1278   1.400       .  A
C1277      C1282   1.397       .  A
C1277      H1283   1.083       .  S
C1278      C1279   1.400       .  A
C1279      C1280   1.393       .  A
C1279      H1284   1.084       .  S
C1280      C1281   1.405       .  A
C1280      H1285   1.083       .  S
C1281      C1282   1.407       .  A
C1282      H1286   1.083       .  S
C1287      C1288   1.338       .  D
C1287      H1289   1.086       .  S
C1288      H1290   1.087       .  S
C1291      N1292   1.352       .  A
C1291      N1296   1.350       .  A
C1291      C1493   1.461       .  S
N1292      C1293   1.356       .  A
C1293      N1294   1.371       .  A
C1293      C1502   1.477       .  S
N1294      C1295   1.364       .  A
C1295      N1296   1.355       .  A
C1295      C1483   1.483       .  S
C1297      N1298   1.369       .  A
C1297      N1302   1.357       .  A
C1297      C1476   1.479       .  S
N1298      C1299   1.371       .  A
C1299      N1300   1.346       .  A
C1299      C1718   1.474       .  S
N1300      C1301   1.347       .  A
C1301      N1302   1.356       .  A
C1301      C1463   1.465       .  S
C1303      N1304   1.353       .  A
C1303      N1308   1.352       .  A
C1303      C1442   1.470       .  S
N1304      C1305   1.357       .  A
C1305      N1306   1.370       .  A
C1305      C1458   1.477       .  S
N1306      C1307   1.364       .  A
C1307      N1308   1.356       .  A
C1307      C1449   1.491       .  S
C1309      N1310   1.368       .  A
C1309      N1314   1.357       .  A
C1309      C1419   1.484       .  S
N1310      C1311   1.371       .  A
C1311      N1312   1.353       .  A
C1311      C1674   1.480       .  S
N1312      C1313   1.352       .  A
C1313      N1314   1.358       .  A
C1313      C1432   1.478       .  S
C1315      N1316   1.361       .  A
C1315      N1320   1.355       .  A
C1315      C1405   1.476       .  S
N1316      C1317   1.367       .  A
C1317      N1318   1.357       .  A
C1317      C1414   1.476       .  S
N1318      C1319   1.355       .  A
C1319      N1320   1.357       .  A
C1319      C1395   1.477       .  S
C1321      N1322   1.356       .  A
C1321      N1326   1.371       .  A
C1321      C1388   1.482       .  S
N1322      C1323   1.355       .  A
C1323      N1324   1.346       .  A
C1323      C1375   1.467       .  S
N1324      C1325   1.347       .  A
C1325      N1326   1.373       .  A
C1325      C1630   1.476       .  S
O1327     Mn1353   2.073       .  S
C1328      C1473   1.494       .  S
C1328      O1361   1.276       .  A
C1328      O1358   1.272       .  A
O1329     Mn1336   2.183       .  S
O1329     Mn1347   2.122       .  S
O1329     Mn1351   2.174       .  S
O1330     Mn1364   2.084       .  S
O1330      C1340   1.269       .  A
O1331     Mn1347   2.069       .  S
O1331      C1354   1.267       .  A
O1332     Mn1351   2.118       .  S
O1332      C1359   1.254       .  A
O1333     Mn1353   1.946       .  S
O1333      C1349   1.213       .  S
C1334      C1452   1.484       .  S
C1334      O1337   1.253       .  A
C1334      O1360   1.216       .  S
O1335     Mn1336   2.189       .  S
O1335     Mn1369   2.120       .  S
O1335     Mn1351   2.177       .  S
Mn1336     O1341   2.108       .  S
O1338     Mn1345   2.068       .  S
O1338      C1340   1.266       .  A
C1339      C1429   1.474       .  S
C1339      O1365   1.254       .  A
C1339      O1352   1.213       .  S
C1340      C1496   1.460       .  S
O1341      C1366   1.252       .  A
O1342     Mn1345   2.105       .  S
O1342     Mn1364   2.117       .  S
O1343     Mn1347   1.993       .  S
O1343     Mn1369   1.993       .  S
O1343      C1366   1.233       .  A
C1344      C1408   1.487       .  S
C1344      O1346   1.269       .  A
Mn1345     O1358   2.095       .  S
O1346     Mn1369   2.081       .  S
Mn1347     O1363   2.110       .  S
Mn1347     O1357   1.992       .  S
O1348     Mn1353   2.107       .  S
C1349      C1398   1.472       .  S
C1349      O1367   1.252       .  A
C1350      C1422   1.499       .  S
C1350      O1363   1.274       .  A
O1352     Mn1355   1.947       .  S
Mn1353     O1371   1.941       .  S
C1354      C1439   1.461       .  S
Mn1355     O1362   2.095       .  S
Mn1355     O1370   2.099       .  S
Mn1355     O1360   1.947       .  S
C1356      C1385   1.497       .  S
C1356      O1372   1.271       .  A
O1357     Mn1369   1.978       .  S
O1357      C1359   1.221       .  S
C1359      C1486   1.483       .  S
O1361     Mn1364   2.115       .  S
C1366      C1466   1.458       .  S
O1368      C1373   1.253       .  A
Mn1369     O1372   2.099       .  S
O1371      C1373   1.212       .  S
C1373      C1378   1.465       .  S
C1374      C1375   1.409       .  A
C1374      C1379   1.395       .  A
C1374      H1380   1.083       .  S
C1376      C1377   1.389       .  A
C1376      H1381   1.083       .  S
C1377      H1382   1.083       .  S
C1378      C1379   1.399       .  A
C1379      H1383   1.083       .  S
C1384      C1389   1.399       .  A
C1384      H1390   1.083       .  S
C1385      C1386   1.412       .  A
C1386      C1387   1.406       .  A
C1386      H1391   1.083       .  S
C1387      C1388   1.404       .  A
C1387      H1392   1.083       .  S
C1389      H1393   1.083       .  S
C1394      C1399   1.389       .  A
C1394      H1400   1.083       .  S
C1395      C1396   1.410       .  A
C1396      C1397   1.404       .  A
C1396      H1401   1.083   1_655  S
C1397      C1398   1.403       .  A
C1397      H1402   1.083   1_655  S
C1399      H1403   1.083       .  S
C1404      C1405   1.402       .  A
C1404      C1409   1.398       .  A
C1404      H1410   1.084       .  S
C1406      C1407   1.403       .  A
C1406      H1411   1.083       .  S
C1407      H1412   1.083       .  S
C1408      C1409   1.408       .  A
C1409      H1413   1.083       .  S
C1414      C1415   1.339       .  D
C1414      H1416   1.087   1_655  S
C1415      C1540   1.475   1_554  S
C1418      C1419   1.404   1_545  A
C1418      C1423   1.403       .  A
C1419      C1420   1.404       .  A
C1420      C1421   1.408       .  A
C1420      H1425   1.083       .  S
C1421      C1422   1.411       .  A
C1421      H1426   1.083       .  S
C1422      C1423   1.409   1_565  A
C1428      C1429   1.407       .  A
C1428      C1433   1.389       .  A
C1428      H1434   1.083       .  S
C1429      C1430   1.401       .  A
C1430      C1431   1.401       .  A
C1430      H1435   1.083       .  S
C1431      C1432   1.411       .  A
C1431      H1436   1.083       .  S
C1432      C1433   1.400       .  A
C1433      H1437   1.083       .  S
C1438      C1439   1.401       .  A
C1438      C1443   1.392       .  A
C1438      H1444   1.084       .  S
C1439      C1440   1.401       .  A
C1440      C1441   1.397       .  A
C1440      H1445   1.084   1_565  S
C1441      C1442   1.405       .  A
C1441      H1446   1.083   1_565  S
C1442      C1443   1.404       .  A
C1443      H1447   1.083       .  S
C1448      C1449   1.411       .  A
C1448      C1453   1.413       .  A
C1448      H1454   1.083       .  S
C1449      C1450   1.405       .  A
C1450      C1451   1.387       .  A
C1450      H1455   1.083       .  S
C1451      C1452   1.403       .  A
C1451      H1456   1.084       .  S
C1452      C1453   1.408       .  A
C1453      H1457   1.083       .  S
C1458      C1459   1.337       .  D
C1458      H1460   1.087       .  S
C1459      C1526   1.477       .  S
C1459      H1461   1.087       .  S
C1462      C1463   1.397       .  A
C1462      C1467   1.383       .  A
C1462      H1468   1.082       .  S
C1463      C1464   1.410       .  A
C1464      C1465   1.392       .  A
C1464      H1469   1.084       .  S
C1465      C1466   1.394       .  A
C1465      H1470   1.080       .  S
C1466      C1467   1.410       .  A
C1467      H1471   1.086       .  S
C1472      C1473   1.410       .  A
C1472      C1477   1.400       .  A
C1472      H1478   1.083       .  S
C1473      C1474   1.409       .  A
C1474      C1475   1.406       .  A
C1474      H1479   1.083       .  S
C1475      C1476   1.404       .  A
C1475      H1480   1.083       .  S
C1476      C1477   1.403       .  A
C1477      H1481   1.083       .  S
C1482      C1483   1.408       .  A
C1482      C1487   1.411       .  A
C1482      H1488   1.083       .  S
C1483      C1484   1.404       .  A
C1484      C1485   1.390       .  A
C1484      H1489   1.084       .  S
C1485      C1486   1.402       .  A
C1485      H1490   1.084       .  S
C1486      C1487   1.409       .  A
C1487      H1491   1.083       .  S
C1492      C1493   1.402       .  A
C1492      C1497   1.395       .  A
C1492      H1498   1.083       .  S
C1493      C1494   1.402       .  A
C1494      C1495   1.392       .  A
C1494      H1499   1.083       .  S
C1495      C1496   1.401       .  A
C1495      H1500   1.083       .  S
C1496      C1497   1.403       .  A
C1497      H1501   1.084       .  S
C1502      C1503   1.335       .  D
C1502      H1504   1.087       .  S
C1503      C1514   1.475   1_554  S
C1503      H1505   1.087       .  S
C1506      N1507   1.349       .  A
C1506      N1511   1.353       .  A
C1506      C1708   1.465       .  S
N1507      C1508   1.352       .  A
C1508      N1509   1.373       .  A
C1508      C1717   1.477       .  S
N1509      C1510   1.368       .  A
C1510      N1511   1.358       .  A
C1510      C1698   1.494       .  S
C1512      N1513   1.366       .  A
C1512      N1517   1.358       .  A
C1512      C1691   1.481       .  S
N1513      C1514   1.369       .  A
C1514      N1515   1.352       .  A
N1515      C1516   1.351       .  A
C1516      N1517   1.358       .  A
C1516      C1678   1.476       .  S
C1518      N1519   1.351       .  A
C1518      N1523   1.349       .  A
C1518      C1657   1.463       .  S
N1519      C1520   1.356       .  A
C1520      N1521   1.374       .  A
C1520      C1673   1.480       .  S
N1521      C1522   1.368       .  A
C1522      N1523   1.356       .  A
C1522      C1664   1.497       .  S
C1524      N1525   1.364       .  A
C1524      N1529   1.355       .  A
C1524      C1634   1.478       .  S
N1525      C1526   1.369   1_556  A
C1526      N1527   1.355   1_554  A
N1527      C1528   1.353       .  A
C1528      N1529   1.356       .  A
C1528      C1647   1.478       .  S
C1530      N1531   1.348       .  A
C1530      N1535   1.351       .  A
C1530      C1620   1.457       .  S
N1531      C1532   1.350       .  A
C1532      N1533   1.375       .  A
C1532      C1629   1.478       .  S
N1533      C1534   1.369       .  A
C1534      N1535   1.357       .  A
C1534      C1610   1.493       .  S
C1536      N1537   1.350       .  A
C1536      N1541   1.353       .  A
C1536      C1603   1.464       .  S
N1537      C1538   1.355       .  A
C1538      N1539   1.363       .  A
C1538      C1590   1.486       .  S
N1539      C1540   1.368       .  A
C1540      N1541   1.358       .  A
O1542     Mn1568   2.082       .  S
C1543      C1688   1.492       .  S
C1543      O1576   1.274       .  A
C1543      O1573   1.274       .  A
O1544     Mn1551   2.181       .  S
O1544     Mn1562   2.112       .  S
O1544     Mn1566   2.183       .  S
O1545     Mn1579   2.086       .  S
O1545      C1555   1.270       .  A
O1546     Mn1562   2.081       .  S
O1546      C1569   1.268       .  A
O1547     Mn1566   2.139       .  S
O1547      C1574   1.255       .  A
O1548     Mn1568   1.964       .  S
O1548      C1564   1.220       .  S
C1549      C1667   1.490       .  S
C1549      O1552   1.255       .  A
C1549      O1575   1.218       .  S
O1550     Mn1551   2.173       .  S
O1550     Mn1584   2.117       .  S
O1550     Mn1566   2.165       .  S
Mn1551     O1556   2.106       .  S
O1553     Mn1560   2.071       .  S
O1553      C1555   1.268       .  A
C1554      C1644   1.474       .  S
C1554      O1580   1.254       .  A
C1554      O1567   1.214       .  S
C1555      C1711   1.460       .  S
O1556      C1581   1.254       .  A
O1557     Mn1560   2.114       .  S
O1557     Mn1579   2.121       .  S
O1558     Mn1562   1.945       .  S
O1558     Mn1584   1.949       .  S
O1558      C1581   1.216       .  S
C1559      C1623   1.459       .  S
C1559      O1561   1.269       .  A
Mn1560     O1573   2.110       .  S
O1561     Mn1584   2.080       .  S
Mn1562     O1578   2.098       .  S
Mn1562     O1572   1.952       .  S
O1563     Mn1568   2.112       .  S
C1564      C1613   1.489       .  S
C1564      O1582   1.255       .  A
C1565      C1637   1.493       .  S
C1565      O1578   1.272       .  A
O1567     Mn1570   1.952       .  S
Mn1568     O1586   1.953       .  S
C1569      C1654   1.460       .  S
Mn1570     O1577   2.090       .  S
Mn1570     O1585   2.097       .  S
Mn1570     O1575   1.955       .  S
C1571      C1600   1.466       .  S
C1571      O1587   1.270       .  A
O1572     Mn1584   1.957       .  S
O1572      C1574   1.218       .  S
C1574      C1701   1.491       .  S
O1576     Mn1579   2.105       .  S
C1581      C1681   1.471       .  S
O1583      C1588   1.255       .  A
Mn1584     O1587   2.086       .  S
O1586      C1588   1.219       .  S
C1588      C1593   1.481       .  S
C1589      C1590   1.409       .  A
C1589      C1594   1.408       .  A
C1589      H1595   1.083       .  S
C1591      C1592   1.390       .  A
C1591      H1596   1.083       .  S
C1592      H1597   1.084       .  S
C1593      C1594   1.407       .  A
C1594      H1598   1.083       .  S
C1599      C1604   1.399       .  A
C1599      H1605   1.083       .  S
C1600      C1601   1.402       .  A
C1601      C1602   1.392       .  A
C1601      H1606   1.083       .  S
C1602      C1603   1.402       .  A
C1602      H1607   1.083       .  S
C1604      H1608   1.083       .  S
C1609      C1614   1.391       .  A
C1609      H1615   1.083       .  S
C1610      C1611   1.410       .  A
C1611      C1612   1.415       .  A
C1611      H1616   1.083       .  S
C1612      C1613   1.410       .  A
C1612      H1617   1.083       .  S
C1614      H1618   1.083       .  S
C1619      C1620   1.402       .  A
C1619      C1624   1.392       .  A
C1619      H1625   1.083       .  S
C1621      C1622   1.403       .  A
C1621      H1626   1.083       .  S
C1622      H1627   1.083       .  S
C1623      C1624   1.401       .  A
C1624      H1628   1.083       .  S
C1629      C1630   1.329       .  D
C1629      H1631   1.087       .  S
C1633      C1634   1.404   1_545  A
C1633      C1638   1.407       .  A
C1634      C1635   1.402       .  A
C1635      C1636   1.399       .  A
C1635      H1640   1.083       .  S
C1636      C1637   1.408       .  A
C1636      H1641   1.083       .  S
C1637      C1638   1.411   1_565  A
C1643      C1644   1.406       .  A
C1643      C1648   1.387       .  A
C1643      H1649   1.083       .  S
C1644      C1645   1.402       .  A
C1645      C1646   1.402       .  A
C1645      H1650   1.083       .  S
C1646      C1647   1.410       .  A
C1646      H1651   1.083       .  S
C1647      C1648   1.401       .  A
C1648      H1652   1.083       .  S
C1653      C1654   1.402       .  A
C1653      C1658   1.394       .  A
C1653      H1659   1.083       .  S
C1654      C1655   1.401   1_565  A
C1655      C1656   1.392       .  A
C1655      H1660   1.084       .  S
C1656      C1657   1.403   1_545  A
C1656      H1661   1.083       .  S
C1657      C1658   1.402       .  A
C1658      H1662   1.083       .  S
C1663      C1664   1.411       .  A
C1663      C1668   1.416       .  A
C1663      H1669   1.083       .  S
C1664      C1665   1.408       .  A
C1665      C1666   1.388       .  A
C1665      H1670   1.083   1_565  S
C1666      C1667   1.402       .  A
C1666      H1671   1.084   1_565  S
C1667      C1668   1.410       .  A
C1668      H1672   1.083       .  S
C1673      C1674   1.335       .  D
C1673      H1675   1.087       .  S
C1674      H1676   1.087       .  S
C1677      C1678   1.401       .  A
C1677      C1682   1.389       .  A
C1677      H1683   1.083       .  S
C1678      C1679   1.410       .  A
C1679      C1680   1.398       .  A
C1679      H1684   1.083       .  S
C1680      C1681   1.401       .  A
C1680      H1685   1.083       .  S
C1681      C1682   1.406       .  A
C1682      H1686   1.083       .  S
C1687      C1688   1.411       .  A
C1687      C1692   1.407       .  A
C1687      H1693   1.084       .  S
C1688      C1689   1.407       .  A
C1689      C1690   1.401       .  A
C1689      H1694   1.083       .  S
C1690      C1691   1.404       .  A
C1690      H1695   1.083       .  S
C1691      C1692   1.404       .  A
C1692      H1696   1.083       .  S
C1697      C1698   1.411       .  A
C1697      C1702   1.416       .  A
C1697      H1703   1.082       .  S
C1698      C1699   1.405       .  A
C1699      C1700   1.392       .  A
C1699      H1704   1.083       .  S
C1700      C1701   1.404       .  A
C1700      H1705   1.083       .  S
C1701      C1702   1.410       .  A
C1702      H1706   1.083       .  S
C1707      C1708   1.404       .  A
C1707      C1712   1.394       .  A
C1707      H1713   1.083       .  S
C1708      C1709   1.402       .  A
C1709      C1710   1.393       .  A
C1709      H1714   1.083       .  S
C1710      C1711   1.402       .  A
C1710      H1715   1.084       .  S
C1711      C1712   1.401       .  A
C1712      H1716   1.084       .  S
C1717      C1718   1.330       .  D
C1717      H1719   1.087       .  S
C1718      H1720   1.088       .  S
