geometry optimzed in LAMMPS
_audit_creation_date              2020-11-30 
_audit_creation_method            'lammps2cif' 
_symmetry_space_group_name_H-M    'P1' 
_symmetry_Int_Tables_number       1 
_symmetry_cell_setting            triclinic 
loop_ 
_symmetry_equiv_pos_as_xyz 
  x,y,z 
_cell_length_a                    47.035849128046216 
_cell_length_b                    47.030199752024295 
_cell_length_c                    38.578411840244584 
_cell_angle_alpha                 90.00081591452592 
_cell_angle_beta                  89.99935344955425 
_cell_angle_gamma                 120.7997165927605 
loop_ 
_atom_site_label 
_atom_site_type_symbol 
_atom_site_fract_x 
_atom_site_fract_y 
_atom_site_fract_z 
_atom_site_charge 
O1          O  0.48999081  0.90230694  0.07193261    -0.83070
O2          O  0.45074891  0.84245958  0.10239626    -0.80120
C3          C  0.46806375  0.84321788  0.12801013     1.00390
O4          O  0.47063053  0.85958351  0.15478629    -0.80150
O5          O  0.48398514  0.91504200  0.18927537    -0.82800
C6          C  0.51095656  0.93630640  0.17500720     1.04920
O7          O  0.51164679  0.94766791  0.14548515    -0.75560
O8          O  0.49423807  0.95027062  0.07933354    -0.75750
C9          C  0.50631276  0.93327829  0.06920219     1.04870
O10         O  0.43247800  0.91049841  0.06107861    -0.83070
O11         O  0.39537526  0.85386386  0.09681363    -0.80130
C12         C  0.38301561  0.83796521  0.12430901     1.00410
O13         O  0.40112205  0.83899220  0.14910840    -0.80160
O14         O  0.41466869  0.89686723  0.17869406    -0.82770
C15         C  0.42613330  0.92746259  0.18111543     1.04880
O16         O  0.45492846  0.94755319  0.17072725    -0.75590
O17         O  0.43334667  0.94128899  0.10456287    -0.75730
C18         C  0.42395571  0.92964876  0.07478920     1.04840
Cr19       Cr  0.44278574  0.87853675  0.08552120     1.93740
Cr20       Cr  0.44315989  0.87896557  0.16542859     1.93210
Cr21       Cr  0.47218328  0.94369847  0.12505251     1.39100
O22         O  0.45262325  0.90007025  0.12532653    -1.20820
O23         O  0.27590769  0.95526251  0.02048099    -0.83070
O24         O  0.30222261  0.01766343  0.04822770    -0.80120
C25         C  0.31892639  0.01571625  0.07295790     1.00390
O26         O  0.34401755  0.01372147  0.06687218    -0.80150
O27         O  0.38763955  0.00061914  0.03394061    -0.82800
C28         C  0.37465840  0.96954029  0.03080679     1.04920
O29         O  0.34916707  0.95266103  0.01296419    -0.75560
O30         O  0.29282115  0.93603658  0.47854869    -0.75750
C31         C  0.27671041  0.93154942  0.00630634     1.04870
O32         O  0.28432571  0.98204697  0.45019207    -0.83070
O33         O  0.31872619  0.04416144  0.47795795    -0.80130
C34         C  0.34382892  0.06905599  0.49058283     1.00410
O35         O  0.35820164  0.06614143  0.01686925    -0.80160
O36         O  0.39768977  0.04943886  0.48333944    -0.82770
C37         C  0.40668259  0.03283273  0.46629697     1.04880
O38         O  0.38854787  0.00180411  0.46344133    -0.75590
O39         O  0.33147573  0.98956296  0.43071984    -0.75730
C40         C  0.30364928  0.98625952  0.42518586     1.04840
Cr41       Cr  0.29754735  0.99976419  0.99922620     1.93740
Cr42       Cr  0.36929395  0.03034879  0.02375033     1.93210
Cr43       Cr  0.34007703  0.97208191  0.47295561     1.39100
O44         O  0.33577441  0.00080501  0.99870776    -1.20820
O45         O  0.28634724  0.98487792  0.29785694    -0.83070
O46         O  0.32390405  0.04762884  0.27117051    -0.80120
C47         C  0.34921531  0.07193413  0.25796285     1.00390
O48         O  0.36270574  0.06807432  0.23134529    -0.80150
O49         O  0.40067632  0.04927537  0.26512275    -0.82800
C50         C  0.40844520  0.03189729  0.28271681     1.04920
O51         O  0.38928811  0.00091211  0.28539022    -0.75560
O52         O  0.33204685  0.98914492  0.31756702    -0.75750
C53         C  0.30476349  0.98715170  0.32296450     1.04870
O54         O  0.27715997  0.95914734  0.22747893    -0.83070
O55         O  0.30620286  0.02174293  0.20067757    -0.80130
C56         C  0.32153347  0.01801680  0.17572529     1.00410
O57         O  0.34624580  0.01518176  0.18142005    -0.80160
O58         O  0.38918334  0.00062988  0.21412638    -0.82770
C59         C  0.37549920  0.96951967  0.21688114     1.04880
O60         O  0.34964508  0.95295512  0.23431419    -0.75590
O61         O  0.29300191  0.93731132  0.26779006    -0.75730
C62         C  0.27663158  0.93436989  0.24060981     1.04840
Cr63       Cr  0.30079679  0.00329382  0.24935254     1.93740
Cr64       Cr  0.37204560  0.03115785  0.22451766     1.93210
Cr65       Cr  0.34067156  0.97229656  0.27471452     1.39100
O66         O  0.33799548  0.00226183  0.24955106    -1.20820
O67         O  0.15483393  0.78162594  0.09973314    -0.83070
O68         O  0.16800365  0.79805537  0.16896557    -0.80120
C69         C  0.16097684  0.77170178  0.18449953     1.00390
O70         O  0.17784349  0.75810395  0.17990066    -0.80150
O71         O  0.22082060  0.74228318  0.14774650    -0.82800
C72         C  0.20657592  0.72498141  0.12126959     1.04920
O73         O  0.19996273  0.73705471  0.09552647    -0.75560
O74         O  0.18551781  0.77860249  0.05858960    -0.75750
C75         C  0.15806795  0.77405541  0.06927819     1.04870
O76         O  0.21221882  0.84213838  0.08106465    -0.83070
O77         O  0.22877174  0.85518799  0.15030660    -0.80130
C78         C  0.23618656  0.85181590  0.18078273     1.00410
O79         O  0.23136136  0.82425528  0.19144345    -0.80160
O80         O  0.27269541  0.80956161  0.15444907    -0.82770
C81         C  0.28471295  0.80293243  0.12866342     1.04880
O82         O  0.26737318  0.78872449  0.10218970    -0.75590
O83         O  0.25184065  0.83185719  0.06998830    -0.75730
C84         C  0.23843599  0.84890041  0.06541205     1.04840
Cr85       Cr  0.19278820  0.81740524  0.12501584     1.93740
Cr86       Cr  0.22482152  0.78442550  0.16506384     1.93210
Cr87       Cr  0.22530547  0.78492512  0.08489811     1.39100
O88         O  0.21435300  0.79553435  0.12498735    -1.20820
O89         O  0.36351492  0.20424016  0.41873413    -0.83070
O90         O  0.36578372  0.21907119  0.34923809    -0.80120
C91         C  0.37809672  0.22920957  0.31959237     1.00390
O92         O  0.40266163  0.22743966  0.30932532    -0.80150
O93         O  0.45827596  0.27079109  0.34767810    -0.82800
C94         C  0.47662224  0.28347309  0.37388050     1.04920
O95         O  0.47418882  0.26562753  0.39953948    -0.75560
O96         O  0.41340237  0.24579980  0.43034964    -0.75750
C97         C  0.38238695  0.23131287  0.43391188     1.04870
O98         O  0.37025633  0.14878914  0.40107463    -0.83070
O99         O  0.36659646  0.16063167  0.33140506    -0.80130
C100        C  0.38760217  0.15657726  0.31529946     1.00410
O101        O  0.41821776  0.17648274  0.31917132    -0.80160
O102        O  0.47616325  0.22071517  0.35286041    -0.82770
C103        C  0.47870708  0.20538144  0.37847136     1.04880
O104        O  0.46024887  0.19862725  0.40465805    -0.75350
O105        O  0.40326129  0.18104590  0.44215326    -0.75730
C106        C  0.38144371  0.15270939  0.43149060     1.04840
Cr107      Cr  0.37036852  0.18529157  0.37514099     1.93740
Cr108      Cr  0.43694180  0.22284252  0.33567543     1.93210
Cr109      Cr  0.43601112  0.22181119  0.41574212     1.39100
O110        O  0.41444045  0.21001084  0.37543372    -1.20820
O111        O  0.10723108  0.51975026  0.17799454    -0.83070
O112        O  0.16705346  0.55888714  0.14750520    -0.80120
C113        C  0.16623018  0.54152146  0.12190028     1.00390
O114        O  0.14987035  0.53899851  0.09513149    -0.80150
O115        O  0.09449346  0.52585744  0.06060748    -0.82800
C116        C  0.07323385  0.49887531  0.07485416     1.04920
O117        O  0.06183840  0.49817359  0.10436117    -0.75560
O118        O  0.05926622  0.51549250  0.17055816    -0.75750
C119        C  0.07626519  0.50342640  0.18070802     1.04870
O120        O  0.09912953  0.57732030  0.18889675    -0.83070
O121        O  0.15573463  0.61435642  0.15312463    -0.80130
C122        C  0.17163208  0.62669398  0.12562792     1.00410
O123        O  0.17063168  0.60856089  0.10087089    -0.80160
O124        O  0.11282048  0.59520335  0.07128145    -0.82770
C125        C  0.08224127  0.58382988  0.06887118     1.04880
O126        O  0.06208423  0.55503951  0.07924730    -0.75590
O127        O  0.06832716  0.57648955  0.14545400    -0.75730
C128        C  0.08000999  0.58589436  0.17521102     1.04840
Cr129      Cr  0.13103340  0.56694603  0.16441253     1.93740
Cr130      Cr  0.13060794  0.56659746  0.08451247     1.93210
Cr131      Cr  0.06587448  0.53764925  0.12488014     1.39100
O132        O  0.10949424  0.55714564  0.12461143    -1.20820
O133        O  0.95368300  0.27720853  0.47945713    -0.83070
O134        O  0.01608471  0.30362137  0.45173380    -0.80120
C135        C  0.01410845  0.32031269  0.42700635     1.00390
O136        O  0.01209265  0.34539478  0.43309816    -0.80150
O137        O  0.99889978  0.38895692  0.46604204    -0.82800
C138        C  0.96782239  0.37595732  0.46916134     1.04920
O139        O  0.95094610  0.35043468  0.48697020    -0.75560
O140        O  0.93450502  0.29398599  0.02138758    -0.75750
C141        C  0.92994478  0.27796455  0.49362045     1.04870
O142        O  0.98056224  0.28557758  0.04974516    -0.83070
O143        O  0.04266817  0.32008428  0.02197744    -0.80130
C144        C  0.06753465  0.34521351  0.00935201     1.00410
O145        O  0.06450500  0.35963795  0.48313365    -0.80160
O146        O  0.04779056  0.39900460  0.01658097    -0.82770
C147        C  0.03114921  0.40794675  0.03363831     1.04880
O148        O  0.00013154  0.38975334  0.03651034    -0.75590
O149        O  0.98799000  0.33269891  0.06921765    -0.75730
C150        C  0.98471710  0.30488191  0.07475403     1.04840
Cr151      Cr  0.99816693  0.29890537  0.50073108     1.93740
Cr152      Cr  0.02866682  0.37066252  0.47623971     1.93210
Cr153      Cr  0.97047860  0.34127026  0.02698411     1.39100
O154        O  0.99914016  0.33710600  0.50125725    -1.20820
O155        O  0.98318904  0.28753155  0.20209417    -0.83070
O156        O  0.04593027  0.32515086  0.22876315    -0.80120
C157        C  0.07022508  0.35047992  0.24195962     1.00390
O158        O  0.06634991  0.36397587  0.26856181    -0.80150
O159        O  0.04747820  0.40187548  0.23471484    -0.82800
C160        C  0.03006416  0.40962052  0.21715038     1.04920
O161        O  0.99908435  0.39043722  0.21451067    -0.75560
O162        O  0.98733679  0.33318173  0.18236943    -0.75750
C163        C  0.98542231  0.30592896  0.17698180     1.04870
O164        O  0.95746520  0.27834000  0.27247639    -0.83070
O165        O  0.02004967  0.30746984  0.29927942    -0.80130
C166        C  0.01632991  0.32282477  0.32421564     1.00410
O167        O  0.01348153  0.34752816  0.31849276    -0.80160
O168        O  0.99889033  0.39041952  0.28574104    -0.82770
C169        C  0.96778312  0.37673439  0.28302359     1.04880
O170        O  0.95119756  0.35083755  0.26564633    -0.75590
O171        O  0.93557122  0.29414504  0.23219229    -0.75730
C172        C  0.93266877  0.27777906  0.25936421     1.04840
Cr173      Cr  0.00159931  0.30201683  0.25059479     1.93740
Cr174      Cr  0.02941614  0.37328638  0.27536409     1.93210
Cr175      Cr  0.97051381  0.34182436  0.22523206     1.39100
O176        O  0.00051790  0.33919594  0.25037522    -1.20820
O177        O  0.51850395  0.10921473  0.32200157    -0.83070
O178        O  0.55761630  0.16902021  0.35255746    -0.80120
C179        C  0.54025058  0.16816817  0.37816972     1.00390
O180        O  0.53772436  0.15179075  0.40492508    -0.80150
O181        O  0.52457103  0.09637434  0.43937580    -0.82800
C182        C  0.49760349  0.07512588  0.42509880     1.04920
O183        O  0.49691821  0.06378649  0.39556474    -0.75560
O184        O  0.51429781  0.06126359  0.32937844    -0.75750
C185        C  0.50221345  0.07824816  0.31924093     1.04870
O186        O  0.57609296  0.10115006  0.31110213    -0.83070
O187        O  0.61307972  0.15775244  0.34692172    -0.80130
C188        C  0.62539155  0.17363852  0.37442981     1.00410
O189        O  0.60725523  0.17258274  0.39920421    -0.80160
O190        O  0.59391767  0.11472128  0.42872545    -0.82770
C191        C  0.58251504  0.08413001  0.43111768     1.04880
O192        O  0.55373193  0.06400166  0.42071731    -0.75590
O193        O  0.57525972  0.07032990  0.35453413    -0.75730
C194        C  0.58464000  0.08199946  0.32476937     1.04840
Cr195      Cr  0.56569122  0.13302956  0.33561017     1.93740
Cr196      Cr  0.56531511  0.13252634  0.41551836     1.93210
Cr197      Cr  0.53640239  0.06784107  0.37507675     1.39100
O198        O  0.55588784  0.11145916  0.37539198    -1.20820
O199        O  0.73254560  0.05602421  0.27054969    -0.83070
O200        O  0.70608864  0.99358189  0.29826393    -0.80120
C201        C  0.68942390  0.99559027  0.32299688     1.00390
O202        O  0.66438571  0.99767873  0.31691148    -0.80150
O203        O  0.62086434  0.01094171  0.28396934    -0.82800
C204        C  0.63389022  0.04202582  0.28080295     1.04920
O205        O  0.65939413  0.05885291  0.26296023    -0.75560
O206        O  0.71578488  0.07530963  0.22861708    -0.75750
C207        C  0.73177806  0.07976630  0.25639249     1.04870
O208        O  0.72421534  0.02926377  0.20023498    -0.83070
O209        O  0.68967299  0.96710746  0.22793926    -0.80130
C210        C  0.66452620  0.94223261  0.24054256     1.00410
O211        O  0.65005110  0.94520162  0.26688650    -0.80160
O212        O  0.61080771  0.96200821  0.23332741    -0.82770
C213        C  0.60186568  0.97864139  0.21626142     1.04880
O214        O  0.62003739  0.00966801  0.21341050    -0.75590
O215        O  0.67711069  0.02184138  0.18073768    -0.75730
C216        C  0.70492032  0.02509982  0.17521732     1.04840
Cr217      Cr  0.71082381  0.01151237  0.24926946     1.93740
Cr218      Cr  0.63909801  0.98110298  0.27378479     1.93210
Cr219      Cr  0.66851249  0.03933131  0.22297220     1.39100
O220        O  0.67265277  0.01058750  0.24874054    -1.20820
O221        O  0.72219861  0.02645921  0.04788183    -0.83070
O222        O  0.68451598  0.96370288  0.02121274    -0.80120
C223        C  0.65916828  0.93942350  0.00801766     1.00390
O224        O  0.64565786  0.94330200  0.48143582    -0.80150
O225        O  0.60784715  0.96223781  0.01519369    -0.82800
C226        C  0.60012167  0.97963846  0.03280324     1.04920
O227        O  0.61931855  0.01061784  0.03548722    -0.75560
O228        O  0.67654635  0.02227823  0.06762195    -0.75750
C229        C  0.70381001  0.02422289  0.07300219     1.04870
O230        O  0.73135440  0.05217748  0.47748891    -0.83070
O231        O  0.70218043  0.98954710  0.45071980    -0.80130
C232        C  0.68686191  0.99330344  0.42577500     1.00410
O233        O  0.66219416  0.99620916  0.43148563    -0.80160
O234        O  0.61935932  0.01089765  0.46421156    -0.82770
C235        C  0.63309395  0.04201624  0.46695580     1.04880
O236        O  0.65895656  0.05854395  0.48438730    -0.75590
O237        O  0.71563203  0.07408383  0.01783756    -0.75730
C238        C  0.73192839  0.07698577  0.49060654     1.04840
Cr239      Cr  0.70765654  0.00803163  0.49939152     1.93740
Cr240      Cr  0.63641737  0.98029163  0.47460044     1.93210
Cr241      Cr  0.66794224  0.03916719  0.02478595     1.39100
O242        O  0.67050538  0.00915354  0.49961040    -1.20820
O243        O  0.77972912  0.15624447  0.40031051    -0.83070
O244        O  0.79617987  0.16932631  0.33106308    -0.80120
C245        C  0.76989698  0.16245324  0.31548185     1.00390
O246        O  0.75642185  0.17943425  0.32008165    -0.80150
O247        O  0.74087935  0.22260306  0.35227458    -0.82800
C248        C  0.72357661  0.20842563  0.37876943     1.04920
O249        O  0.73559267  0.20174479  0.40451071    -0.75560
O250        O  0.77697548  0.18708717  0.44145009    -0.75750
C251        C  0.77226683  0.15956705  0.43078331     1.04870
O252        O  0.84039881  0.21347047  0.41893315    -0.83070
O253        O  0.85348118  0.22994294  0.34968256    -0.80130
C254        C  0.85016028  0.23741875  0.31921519     1.00410
O255        O  0.82266127  0.23275142  0.30855959    -0.80160
O256        O  0.80822114  0.27428642  0.34553470    -0.82770
C257        C  0.80163744  0.28636457  0.37130034     1.04880
O258        O  0.78741773  0.26906162  0.39779023    -0.75590
O259        O  0.83040217  0.25330162  0.42994278    -0.75730
C260        C  0.84731192  0.23975750  0.43453724     1.04840
Cr261      Cr  0.81561440  0.19408950  0.37499805     1.93740
Cr262      Cr  0.78291446  0.22640306  0.33493524     1.93210
Cr263      Cr  0.78345400  0.22692237  0.41510067     1.39100
O264        O  0.79394295  0.21585239  0.37501199    -1.20820
O265        O  0.90097829  0.49166722  0.42797564    -0.83070
O266        O  0.84112613  0.45243067  0.39751455    -0.80120
C267        C  0.84191600  0.46977571  0.37191467     1.00390
O268        O  0.85830840  0.47236084  0.34515657    -0.80150
O269        O  0.91373207  0.48562161  0.31065822    -0.82800
C270        C  0.93501714  0.51258424  0.32492729     1.04920
O271        O  0.94641220  0.51324886  0.35442298    -0.75560
O272        O  0.94892636  0.49587665  0.42059701    -0.75750
C273        C  0.93194786  0.50798119  0.43069868     1.04870
O274        O  0.90909612  0.43411625  0.43890646    -0.83070
O275        O  0.85250311  0.39703507  0.40312931    -0.80130
C276        C  0.83662052  0.38468312  0.37562480     1.00410
O277        O  0.83762840  0.40280597  0.35084766    -0.80160
O278        O  0.89543760  0.41626312  0.32123986    -0.82770
C279        C  0.92601342  0.42763975  0.31883589     1.04880
O280        O  0.94616841  0.45641252  0.32925556    -0.75590
O281        O  0.93985012  0.43488473  0.39544697    -0.75730
C282        C  0.92817905  0.42550424  0.42521188     1.04840
Cr283      Cr  0.87718223  0.44445091  0.41441492     1.93740
Cr284      Cr  0.87762343  0.44482361  0.33451369     1.93210
Cr285      Cr  0.94234462  0.47375262  0.37490426     1.39100
O286        O  0.89872562  0.45426114  0.37461543    -1.20820
O287        O  0.05444377  0.73423752  0.22938298    -0.83070
O288        O  0.99198285  0.70773716  0.20174838    -0.80120
C289        C  0.99392326  0.69101872  0.17702234     1.00390
O290        O  0.99596780  0.66595382  0.18312229    -0.80150
O291        O  0.00925764  0.62245069  0.21607137    -0.82800
C292        C  0.04034374  0.63546750  0.21912935     1.04920
O293        O  0.05723861  0.66103033  0.23687860    -0.75560
O294        O  0.07381091  0.71748278  0.27123993    -0.75750
C295        C  0.07821688  0.73349936  0.24349210     1.04870
O296        O  0.02778093  0.72593322  0.29975328    -0.83070
O297        O  0.96559048  0.69138560  0.27213256    -0.80130
C298        C  0.94069344  0.66623957  0.25955969     1.00410
O299        O  0.94362154  0.65172842  0.23322889    -0.80160
O300        O  0.96048172  0.61251516  0.26683737    -0.82770
C301        C  0.97715940  0.60356513  0.28381349     1.04880
O302        O  0.00819046  0.62174111  0.28657228    -0.75590
O303        O  0.02047177  0.67886197  0.31924617    -0.75730
C304        C  0.02370461  0.70666428  0.32477440     1.04840
Cr305      Cr  0.00996505  0.71251236  0.25073301     1.93740
Cr306      Cr  0.97948231  0.64073869  0.22630361     1.93210
Cr307      Cr  0.03783748  0.67021212  0.27694489     1.39100
O308        O  0.00903539  0.67433401  0.25126262    -1.20820
O309        O  0.02502817  0.72391690  0.45214710    -0.83070
O310        O  0.96223912  0.68622152  0.47871734    -0.80120
C311        C  0.93793393  0.66086366  0.49186436     1.00390
O312        O  0.94175847  0.64732511  0.01845370    -0.80150
O313        O  0.96076434  0.60953856  0.48462098    -0.82800
C314        C  0.97821187  0.60182067  0.46708173     1.04920
O315        O  0.00919617  0.62102094  0.46449876    -0.75560
O316        O  0.02095855  0.67830793  0.43239819    -0.75750
C317        C  0.02286976  0.70556074  0.42701988     1.04870
O318        O  0.05062398  0.73305033  0.02258858    -0.83070
O319        O  0.98797223  0.70382676  0.04927464    -0.80130
C320        C  0.99166749  0.68845940  0.07421618     1.00410
O321        O  0.99454869  0.66377476  0.06849205    -0.80160
O322        O  0.00927614  0.62096659  0.03574902    -0.82770
C323        C  0.04039292  0.63468606  0.03308636     1.04880
O324        O  0.05697948  0.66060535  0.01574438    -0.75590
O325        O  0.07263032  0.71732012  0.48232153    -0.75730
C326        C  0.07545872  0.73365378  0.00951410     1.04840
Cr327      Cr  0.00651286  0.70935009  0.00061859     1.93740
Cr328      Cr  0.97872050  0.63806421  0.02532168     1.93210
Cr329      Cr  0.03772287  0.66963561  0.47528773     1.39100
O330        O  0.00763947  0.67219574  0.00039222    -1.20820
O331        O  0.59037231  0.49287635  0.32180396    -0.83070
O332        O  0.60789763  0.45234203  0.35174769    -0.80120
C333        C  0.62522108  0.46966793  0.37725454     1.00390
O334        O  0.61154498  0.47148521  0.40446667    -0.80150
O335        O  0.57203944  0.48752456  0.43926251    -0.82800
C336        C  0.57954665  0.51505470  0.42533920     1.04920
O337        O  0.56873989  0.51632840  0.39608101    -0.75560
O338        O  0.54886291  0.50048750  0.32958711    -0.75750
C339        C  0.57800138  0.51090844  0.31941444     1.04870
O340        O  0.52194784  0.43716688  0.31074923    -0.83070
O341        O  0.53825116  0.39794853  0.34566767    -0.80130
C342        C  0.54009015  0.38434974  0.37292296     1.00410
O343        O  0.55737175  0.40172704  0.39842082    -0.80160
O344        O  0.51658206  0.41896615  0.42828033    -0.82770
C345        C  0.49840877  0.43118495  0.43060879     1.04880
O346        O  0.50867675  0.46027518  0.42036238    -0.75590
O347        O  0.49298519  0.44026771  0.35388044    -0.75730
C348        C  0.49435877  0.42952131  0.32462165     1.04840
Cr349      Cr  0.56396343  0.44575769  0.33510352     1.93740
Cr350      Cr  0.56370739  0.44557334  0.41499422     1.93210
Cr351      Cr  0.53135261  0.47781682  0.37498038     1.39100
O352        O  0.55315464  0.45624094  0.37502839    -1.20820
O353        O  0.27151839  0.31608986  0.22705406    -0.83070
O354        O  0.29895315  0.28134578  0.20143970    -0.80120
C355        C  0.31599537  0.30011954  0.17659589     1.00390
O356        O  0.34151563  0.32756509  0.18259963    -0.80150
O357        O  0.38562842  0.38584299  0.21502041    -0.82800
C358        C  0.37320985  0.40419293  0.21638222     1.04920
O359        O  0.34665886  0.39518502  0.23220302    -0.75560
O360        O  0.28879416  0.35568788  0.26578730    -0.75750
C361        C  0.27152284  0.34086413  0.23934336     1.04870
O362        O  0.27987077  0.30045930  0.29860714    -0.83070
O363        O  0.31457201  0.27298719  0.27298459    -0.80130
C364        C  0.33932843  0.27297154  0.26068426     1.00410
O365        O  0.35414750  0.29023076  0.23423440    -0.80160
O366        O  0.39368539  0.34808916  0.26782855    -0.82770
C367        C  0.40271227  0.37465014  0.28364426     1.04880
O368        O  0.38437941  0.38708686  0.28501256    -0.75590
O369        O  0.32609837  0.34301138  0.31744018    -0.75730
C370        C  0.29865304  0.31749406  0.32344946     1.04840
Cr371      Cr  0.29373367  0.29522543  0.25002120     1.93740
Cr372      Cr  0.36601936  0.33741726  0.22637451     1.93210
Cr373      Cr  0.33596530  0.36751593  0.27365907     1.39100
O374        O  0.33198675  0.33346689  0.25001842    -1.20820
O375        O  0.28134256  0.30184879  0.45157910    -0.83070
O376        O  0.31658742  0.27463635  0.47727855    -0.80120
C377        C  0.34146226  0.27491176  0.48987156     1.00390
O378        O  0.35591904  0.29212962  0.01643627    -0.80150
O379        O  0.39566690  0.35019431  0.48259275    -0.82800
C380        C  0.40428175  0.37646147  0.46621905     1.04920
O381        O  0.38577888  0.38862021  0.46463778    -0.75560
O382        O  0.32743811  0.34421312  0.43227661    -0.75750
C383        C  0.29988949  0.31863376  0.42655517     1.04870
O384        O  0.27315872  0.31806404  0.02280248    -0.83070
O385        O  0.30037350  0.28280757  0.04847667    -0.80130
C386        C  0.31715399  0.30135212  0.07350318     1.00410
O387        O  0.34272895  0.32890703  0.06778911    -0.80160
O388        O  0.38712413  0.38726504  0.03543783    -0.82770
C389        C  0.37496045  0.40576429  0.03385778     1.04880
O390        O  0.34869201  0.39714141  0.01749166    -0.75590
O391        O  0.29064650  0.35739426  0.48362028    -0.75730
C392        C  0.27343726  0.34294819  0.01021991     1.04840
Cr393      Cr  0.29542156  0.29685542  0.00004075     1.93740
Cr394      Cr  0.36760946  0.33911853  0.02401050     1.93210
Cr395      Cr  0.33763425  0.36909334  0.47605716     1.39100
O396        O  0.33364111  0.33514749  0.50002639    -1.20820
O397        O  0.49127208  0.59188377  0.17820559    -0.83070
O398        O  0.45073936  0.60938532  0.14825012    -0.80120
C399        C  0.46807963  0.62671865  0.12275399     1.00390
O400        O  0.46988841  0.61304895  0.09553287    -0.80150
O401        O  0.48595514  0.57357736  0.06072544    -0.82800
C402        C  0.51349085  0.58111989  0.07465122     1.04920
O403        O  0.51477499  0.57031987  0.10391045    -0.75560
O404        O  0.49894720  0.55041402  0.17040002    -0.75750
C405        C  0.50933135  0.57954478  0.18058797     1.04870
O406        O  0.43560133  0.52342717  0.18922812    -0.83070
O407        O  0.39635976  0.53971047  0.15431129    -0.80130
C408        C  0.38275698  0.54155969  0.12706414     1.00410
O409        O  0.40013422  0.55884396  0.10156529    -0.80160
O410        O  0.41742053  0.51808167  0.07170947    -0.82770
C411        C  0.42966109  0.49992645  0.06938586     1.04880
O412        O  0.45875767  0.51022373  0.07961820    -0.75590
O413        O  0.43876866  0.49449567  0.14609976    -0.75730
C414        C  0.42800857  0.49584766  0.17535775     1.04840
Cr415      Cr  0.44416640  0.56544657  0.16488674     1.93740
Cr416      Cr  0.44399612  0.56521068  0.08499686     1.93210
Cr417      Cr  0.47628651  0.53289732  0.12500370     1.39100
O418        O  0.45467169  0.55466139  0.12496173    -1.20820
O419        O  0.69324985  0.73782063  0.02300905    -0.83070
O420        O  0.72790759  0.71030553  0.04857748    -0.80120
C421        C  0.70914575  0.69320453  0.07340913     1.00390
O422        O  0.68173151  0.66765200  0.06738345    -0.80150
O423        O  0.62346133  0.62361766  0.03494452    -0.82800
C424        C  0.60514204  0.63607105  0.03373100     1.04920
O425        O  0.61415769  0.66268465  0.01802493    -0.75560
O426        O  0.65359394  0.72064631  0.48434674    -0.75750
C427        C  0.66849788  0.73787151  0.01076165     1.04870
O428        O  0.70876547  0.72946870  0.45140744    -0.83070
O429        O  0.73620318  0.69473506  0.47697917    -0.80130
C430        C  0.73623056  0.66997558  0.48924887     1.00410
O431        O  0.71902578  0.65511316  0.01566167    -0.80160
O432        O  0.66105590  0.61570556  0.48198569    -0.82770
C433        C  0.63445666  0.60671279  0.46626824     1.04880
O434        O  0.62202457  0.62505223  0.46504887    -0.75590
O435        O  0.66607773  0.68331548  0.43260951    -0.75730
C436        C  0.69164627  0.71071590  0.42657850     1.04840
Cr437      Cr  0.71404123  0.71556894  0.99999336     1.93740
Cr438      Cr  0.67185874  0.64324418  0.02354368     1.93210
Cr439      Cr  0.64167998  0.67345959  0.47645477     1.39100
O440        O  0.67579573  0.67732926  0.00000299    -1.20820
O441        O  0.70735342  0.72794763  0.29842395    -0.83070
O442        O  0.73454794  0.69267198  0.27278391    -0.80120
C443        C  0.73430405  0.66780616  0.26021062     1.00390
O444        O  0.71707101  0.65335761  0.23371185    -0.80150
O445        O  0.65897234  0.61364014  0.26756757    -0.82800
C446        C  0.63267431  0.60504837  0.28386581     1.04920
O447        O  0.62052295  0.62356072  0.28535119    -0.75560
O448        O  0.66489123  0.68191226  0.31770945    -0.75750
C449        C  0.69050334  0.70943342  0.32344261     1.04870
O450        O  0.69115295  0.73615546  0.22719677    -0.83070
O451        O  0.72637076  0.70889991  0.20155823    -0.80130
C452        C  0.70785218  0.69206247  0.17653698     1.00410
O453        O  0.68031931  0.66646373  0.18226497    -0.80160
O454        O  0.62196272  0.62211227  0.21462784    -0.82770
C455        C  0.60346469  0.63427817  0.21611612     1.04880
O456        O  0.61207580  0.66058949  0.23240429    -0.75590
O457        O  0.65183031  0.71869514  0.26625337    -0.75730
C458        C  0.66629741  0.73593186  0.23976161     1.04840
Cr459      Cr  0.71231754  0.71388108  0.24999050     1.93740
Cr460      Cr  0.67009058  0.64165735  0.22609791     1.93210
Cr461      Cr  0.64009292  0.67169769  0.27387362     1.39100
O462        O  0.67405764  0.67563707  0.24998676    -1.20820
O463        O  0.20273362  0.36499268  0.08130779    -0.83070
O464        O  0.21749514  0.36723265  0.15082333    -0.80120
C465        C  0.22766551  0.37957688  0.18045410     1.00390
O466        O  0.22589478  0.40414814  0.19071169    -0.80150
O467        O  0.26917281  0.45981442  0.15238379    -0.82800
C468        C  0.28185643  0.47814836  0.12617137     1.04920
O469        O  0.26400958  0.47569842  0.10051030    -0.75560
O470        O  0.24425452  0.41490875  0.06970385    -0.75750
C471        C  0.22980741  0.38388846  0.06614814     1.04870
O472        O  0.14722996  0.37166764  0.09889867    -0.83070
O473        O  0.15901250  0.36797915  0.16858122    -0.80130
C474        C  0.15493835  0.38895953  0.18471586     1.00410
O475        O  0.17484397  0.41958632  0.18089803    -0.80160
O476        O  0.21897962  0.47757529  0.14720982    -0.82770
C477        C  0.20364868  0.48010493  0.12158497     1.04880
O478        O  0.19698308  0.46168691  0.09537168    -0.75590
O479        O  0.17949486  0.40471732  0.05785400    -0.75730
C480        C  0.15116154  0.38287425  0.06848877     1.04840
Cr481      Cr  0.18372746  0.37180818  0.12487684     1.93740
Cr482      Cr  0.22121092  0.43839219  0.16437731     1.93210
Cr483      Cr  0.22021978  0.43748477  0.08430088     1.39100
O484        O  0.20841493  0.41589461  0.12460690    -1.20820
O485        O  0.64456641  0.80691396  0.16872209    -0.83070
O486        O  0.64231457  0.79207100  0.09923733    -0.80120
C487        C  0.63002692  0.78195701  0.06957889     1.00390
O488        O  0.60552950  0.78381702  0.05926076    -0.80150
O489        O  0.54987663  0.74042097  0.09752658    -0.82800
C490        C  0.53152842  0.72769005  0.12372254     1.04920
O491        O  0.53392328  0.74551967  0.14939331    -0.75560
O492        O  0.59465746  0.76537427  0.18028066    -0.75750
C493        C  0.62566400  0.77983308  0.18386858     1.04870
O494        O  0.63790856  0.86240789  0.15104224    -0.83070
O495        O  0.64159768  0.85057067  0.08137420    -0.80130
C496        C  0.62062298  0.85468340  0.06527883     1.00410
O497        O  0.58999705  0.83479068  0.06912427    -0.80160
O498        O  0.53199026  0.79050022  0.10271843    -0.82770
C499        C  0.52942611  0.80582168  0.12832635     1.04880
O500        O  0.54784997  0.81255239  0.15453481    -0.75590
O501        O  0.60481657  0.83016788  0.19208257    -0.75730
C502        C  0.62669057  0.85850189  0.18144443     1.04840
Cr503      Cr  0.63776555  0.82588365  0.12511574     1.93740
Cr504      Cr  0.57123172  0.78839682  0.08557709     1.93210
Cr505      Cr  0.57207733  0.78937138  0.16564573     1.39100
O506        O  0.59368995  0.80119191  0.12536395    -1.20820
O507        O  0.80525654  0.64611323  0.33128652    -0.83070
O508        O  0.79034910  0.64376891  0.40076474    -0.80120
C509        C  0.78030594  0.63149422  0.43044053     1.00390
O510        O  0.78227652  0.60705641  0.44076136    -0.80150
O511        O  0.73892760  0.55136840  0.40251356    -0.82800
C512        C  0.72619392  0.53304297  0.37630124     1.04920
O513        O  0.74401423  0.53546253  0.35061070    -0.75560
O514        O  0.76378597  0.59617216  0.31971147    -0.75750
C515        C  0.77819936  0.62717867  0.31612368     1.04870
O516        O  0.86080775  0.63959011  0.34899354    -0.83070
O517        O  0.84893028  0.64322603  0.41864701    -0.80130
C518        C  0.85315399  0.62228786  0.43467087     1.00410
O519        O  0.83333064  0.59164739  0.43080241    -0.80160
O520        O  0.78907468  0.53358584  0.39725866    -0.82770
C521        C  0.80440062  0.53105497  0.37163692     1.04880
O522        O  0.81108348  0.54947735  0.34543450    -0.75590
O523        O  0.82863190  0.60645106  0.30793887    -0.75730
C524        C  0.85693951  0.62836975  0.31859651     1.04840
Cr525      Cr  0.82423474  0.63934418  0.37489963     1.93740
Cr526      Cr  0.78691016  0.57279524  0.41441874     1.93210
Cr527      Cr  0.78784270  0.57365250  0.33434851     1.39100
O528        O  0.79963431  0.59525936  0.37463366    -1.20820
C529        C  0.65301582  0.75381652  0.22268047    -0.11000
C530        C  0.64015803  0.76585620  0.20581295    -0.12550
C531        C  0.75216387  0.65449643  0.27728854    -0.11000
C532        C  0.76420030  0.64163930  0.29416261    -0.12550
C533        C  0.69990525  0.71997452  0.39062748    -0.11000
C534        C  0.69933794  0.71934086  0.35919329    -0.12550
C535        C  0.71776963  0.70089521  0.14079012    -0.11000
C536        C  0.71840911  0.70146366  0.10935710    -0.12550
C537        C  0.65605321  0.75620354  0.02843274    -0.11000
C538        C  0.64444725  0.76860339  0.04667787    -0.12550
C539        C  0.76692896  0.64587764  0.45335797    -0.11000
C540        C  0.75453448  0.65749223  0.47159628    -0.12550
C541        C  0.57072379  0.61596415  0.20233916    -0.11000
C542        C  0.54238647  0.59916380  0.19327512    -0.12550
C543        C  0.54425585  0.60157203  0.05742617    -0.11000
C544        C  0.57225192  0.61804886  0.04720654    -0.12550
C545        C  0.31708987  0.50269304  0.12546135    -0.11000
C546        C  0.34681758  0.52223610  0.12510702    -0.12550
C547        C  0.48748135  0.66267911  0.12468980    -0.11000
C548        C  0.50701973  0.69242269  0.12438417    -0.12550
C549        C  0.39322009  0.43851748  0.04763737    -0.11000
C550        C  0.40998680  0.46686541  0.05670224    -0.12550
C551        C  0.25569566  0.35637912  0.02734481    -0.11000
C552        C  0.24376365  0.36935054  0.04421433    -0.12550
C553        C  0.39118088  0.43709885  0.20290273    -0.11000
C554        C  0.40758685  0.46510281  0.19265633    -0.12550
C555        C  0.24097690  0.36512483  0.20339546    -0.11000
C556        C  0.25329937  0.35344055  0.22165750    -0.12550
C557        C  0.30828963  0.29143890  0.10923733    -0.11000
C558        C  0.30771784  0.29082361  0.14066558    -0.12550
C559        C  0.28998477  0.30977500  0.39081517    -0.11000
C560        C  0.28936857  0.30921168  0.35938489    -0.12550
C561        C  0.46362654  0.40905495  0.30732739    -0.11000
C562        C  0.43562302  0.39262069  0.29709902    -0.12550
C563        C  0.46536228  0.41149552  0.44332441    -0.11000
C564        C  0.43702606  0.39472269  0.45241968    -0.12550
C565        C  0.59758757  0.54397157  0.30673167    -0.11000
C566        C  0.61436362  0.57231213  0.29766125    -0.12550
C567        C  0.59996890  0.54582544  0.44256568    -0.11000
C568        C  0.61642920  0.57382457  0.45278586    -0.12550
C569        C  0.66117979  0.48903687  0.37533772    -0.11000
C570        C  0.69092694  0.50854469  0.37563998    -0.12550
C571        C  0.88107012  0.63420617  0.45785794    -0.11000
C572        C  0.90599011  0.64633762  0.47528534    -0.12550
C573        C  0.99171791  0.69784658  0.10982502    -0.11000
C574        C  0.99254896  0.69891357  0.14117867    -0.12550
C575        C  0.02407881  0.71606528  0.36030115    -0.11000
C576        C  0.02376078  0.71553400  0.39160278    -0.12550
C577        C  0.88487748  0.64151344  0.29523541    -0.11000
C578        C  0.90919845  0.65297673  0.27689487    -0.12550
C579        C  0.94835684  0.54101493  0.44354773    -0.11000
C580        C  0.96269550  0.56937916  0.45274664    -0.12550
C581        C  0.94760318  0.54322207  0.30769769    -0.11000
C582        C  0.96086342  0.57103624  0.29732633    -0.12550
C583        C  0.82488187  0.48798532  0.37322142    -0.11000
C584        C  0.81434300  0.50667958  0.37256312    -0.12550
C585        C  0.81003390  0.32031202  0.37066478    -0.11000
C586        C  0.81930000  0.34940303  0.37188496    -0.12550
C587        C  0.64460247  0.90746117  0.02457436    -0.11000
C588        C  0.63248613  0.88255786  0.04203416    -0.12550
C589        C  0.74897025  0.10809826  0.47277892    -0.11000
C590        C  0.75982818  0.13211406  0.45430476    -0.12550
C591        C  0.69627549  0.99338335  0.39017813    -0.11000
C592        C  0.69733960  0.99422510  0.35882846    -0.12550
C593        C  0.71377234  0.02509217  0.10840946    -0.11000
C594        C  0.71430834  0.02542524  0.13970520    -0.12550
C595        C  0.63978869  0.88642069  0.20483929    -0.11000
C596        C  0.65122938  0.91072312  0.22321424    -0.12550
C597        C  0.75631885  0.13530135  0.29161446    -0.11000
C598        C  0.74652233  0.11113821  0.27359181    -0.12550
C599        C  0.60361519  0.07121762  0.30632735    -0.11000
C600        C  0.61802477  0.05827859  0.29510009    -0.12550
C601        C  0.60235158  0.07161698  0.44405674    -0.11000
C602        C  0.61731219  0.05853160  0.45313173    -0.12550
C603        C  0.68970073  0.20018119  0.37943040    -0.11000
C604        C  0.66064173  0.19098096  0.37819808    -0.12550
C605        C  0.90156875  0.26070753  0.27717778    -0.11000
C606        C  0.87758344  0.24983671  0.29568124    -0.12550
C607        C  0.12707792  0.37710200  0.20796362    -0.11000
C608        C  0.10217843  0.36500170  0.22541626    -0.12550
C609        C  0.95137778  0.39263879  0.29680334    -0.11000
C610        C  0.93845062  0.40774804  0.30587658    -0.12550
C611        C  0.98434130  0.29548660  0.11027367    -0.11000
C612        C  0.98461077  0.29599812  0.14157046    -0.12550
C613        C  0.01542165  0.31237115  0.39117040    -0.11000
C614        C  0.01623949  0.31341797  0.35981903    -0.12550
C615        C  0.89856858  0.26312415  0.47646496    -0.11000
C616        C  0.87442449  0.25328040  0.45842469    -0.12550
C617        C  0.12328290  0.36982346  0.04507404    -0.11000
C618        C  0.09902766  0.35846121  0.02665666    -0.12550
C619        C  0.95165349  0.39189602  0.45485903    -0.11000
C620        C  0.93884646  0.40642383  0.44362149    -0.12550
C621        C  0.05682214  0.61880463  0.04688192    -0.11000
C622        C  0.06979168  0.60372867  0.05594472    -0.12550
C623        C  0.06932122  0.60497286  0.19361457    -0.11000
C624        C  0.05650537  0.61950532  0.20483640    -0.12550
C625        C  0.05989168  0.47041918  0.19361301    -0.11000
C626        C  0.04559734  0.44206666  0.20283831    -0.12550
C627        C  0.04746023  0.44047153  0.04715806    -0.11000
C628        C  0.06068658  0.46826537  0.05758111    -0.12550
C629        C  0.18319294  0.52322356  0.12320082    -0.11000
C630        C  0.19369497  0.50448859  0.12252069    -0.12550
C631        C  0.35190376  0.25475643  0.27837205    -0.11000
C632        C  0.36361049  0.24246813  0.29664290    -0.12550
C633        C  0.35487557  0.25715487  0.47276032    -0.11000
C634        C  0.36783514  0.24522636  0.45587398    -0.12550
C635        C  0.50117851  0.31869676  0.37456960    -0.11000
C636        C  0.52074657  0.34841659  0.37489901    -0.12550
C637        C  0.52193690  0.18509912  0.37687935    -0.11000
C638        C  0.50315556  0.19553387  0.37755213    -0.12550
C639        C  0.13377501  0.75816441  0.20829987    -0.11000
C640        C  0.10958568  0.74832996  0.22628441    -0.12550
C641        C  0.13058574  0.76163899  0.04580536    -0.11000
C642        C  0.10655602  0.75075426  0.02735491    -0.12550
C643        C  0.18894553  0.66196350  0.12186391    -0.11000
C644        C  0.19819190  0.69104504  0.12062573    -0.12550
C645        C  0.37579035  0.12875335  0.29201103    -0.11000
C646        C  0.36372275  0.10387931  0.27451990    -0.12550
C647        C  0.25958288  0.90324996  0.22281537    -0.11000
C648        C  0.24868812  0.87925009  0.20432190    -0.12550
C649        C  0.46922434  0.06184663  0.30629759    -0.11000
C650        C  0.44088274  0.04748904  0.29704625    -0.12550
C651        C  0.31208129  0.01789650  0.14013737    -0.11000
C652        C  0.31099702  0.01704981  0.10878949    -0.12550
C653        C  0.29480974  0.98626881  0.35837619    -0.11000
C654        C  0.29427269  0.98593205  0.38967096    -0.12550
C655        C  0.35703470  0.10054550  0.47327960    -0.11000
C656        C  0.36839265  0.12481317  0.45488024    -0.12550
C657        C  0.25203718  0.87600407  0.04149524    -0.11000
C658        C  0.26190223  0.90015587  0.02344935    -0.12550
C659        C  0.43920114  0.04920564  0.45278437    -0.11000
C660        C  0.46699528  0.06250733  0.44237237    -0.12550
C661        C  0.48627985  0.82619449  0.12669789    -0.11000
C662        C  0.50500685  0.81569896  0.12737539    -0.12550
C663        C  0.56768308  0.96406965  0.04712547    -0.11000
C664        C  0.53932603  0.94968378  0.05632586    -0.12550
C665        C  0.54156665  0.94894829  0.19228781    -0.11000
C666        C  0.56936066  0.96228806  0.20270936    -0.12550
C667        C  0.40633225  0.94001094  0.19403640    -0.11000
C668        C  0.39133961  0.95306488  0.20308131    -0.12550
C669        C  0.40499125  0.94044850  0.05638100    -0.11000
C670        C  0.39056360  0.95335523  0.04513964    -0.12550
C671        C  0.31864463  0.81129645  0.12924926    -0.11000
C672        C  0.34773746  0.82059446  0.12801745    -0.12550
O673        O  0.49000600  0.90223426  0.57205865    -0.83070
O674        O  0.45074330  0.84238994  0.60253888    -0.80120
C675        C  0.46804657  0.84315687  0.62816462     1.00390
O676        O  0.47060929  0.85953329  0.65492987    -0.80150
O677        O  0.48396862  0.91501511  0.68937067    -0.82800
C678        C  0.51093696  0.93628054  0.67509678     1.04920
O679        O  0.51162474  0.94762631  0.64556653    -0.75560
O680        O  0.49421347  0.95018533  0.57940498    -0.75750
C681        C  0.50630981  0.93320483  0.56930159     1.04870
O682        O  0.43248319  0.91039793  0.56114844    -0.83070
O683        O  0.39537960  0.85378042  0.59690222    -0.80130
C684        C  0.38301090  0.83790086  0.62440541     1.00410
O685        O  0.40110573  0.83894584  0.64922606    -0.80160
O686        O  0.41465121  0.89683416  0.67877729    -0.82770
C687        C  0.42612098  0.92743095  0.68118732     1.04880
O688        O  0.45491030  0.94751466  0.67078294    -0.75590
O689        O  0.43331118  0.94118684  0.60461363    -0.75730
C690        C  0.42393707  0.92953626  0.57484026     1.04840
Cr691      Cr  0.44279133  0.87845647  0.58562770     1.93740
Cr692      Cr  0.44314196  0.87892435  0.66553788     1.93210
Cr693      Cr  0.47215796  0.94363157  0.62511895     1.39100
O694        O  0.45261040  0.90000608  0.62542234    -1.20820
O695        O  0.27598581  0.95525643  0.52047986    -0.83070
O696        O  0.30233280  0.01765484  0.54825183    -0.80120
C697        C  0.31902578  0.01569158  0.57298257     1.00390
O698        O  0.34409837  0.01366515  0.56689867    -0.80150
O699        O  0.38768704  0.00052317  0.53396684    -0.82800
C700        C  0.37468431  0.96944333  0.53081459     1.04920
O701        O  0.34920033  0.95258863  0.51295449    -0.75560
O702        O  0.29276502  0.93604508  0.97856707    -0.75750
C703        C  0.27676991  0.93153932  0.50629040     1.04870
O704        O  0.28421619  0.98201903  0.95018277    -0.83070
O705        O  0.31859151  0.04414921  0.97791500    -0.80130
C706        C  0.34369232  0.06905384  0.99052900     1.00410
O707        O  0.35834227  0.06612454  0.51691059    -0.80160
O708        O  0.39758304  0.04949709  0.98328887    -0.82770
C709        C  0.40659859  0.03289884  0.96626471     1.04880
O710        O  0.38847721  0.00186658  0.96342034    -0.75590
O711        O  0.33137420  0.98955624  0.93070828    -0.75730
C712        C  0.30353976  0.98623442  0.92517606     1.04840
Cr713      Cr  0.29765415  0.99976736  0.49924513     1.93740
Cr714      Cr  0.36938740  0.03029313  0.52378611     1.93210
Cr715      Cr  0.34000921  0.97211501  0.97295279     1.39100
O716        O  0.33586487  0.00077760  0.49872669    -1.20820
O717        O  0.28632990  0.98488464  0.79783899    -0.83070
O718        O  0.32392153  0.04764507  0.77118154    -0.80120
C719        C  0.34924009  0.07195213  0.75798805     1.00390
O720        O  0.36276700  0.06809793  0.73139927    -0.80150
O721        O  0.40070624  0.04928879  0.76523390    -0.82800
C722        C  0.40845762  0.03190398  0.78284116     1.04920
O723        O  0.38928828  0.00091935  0.78551075    -0.75560
O724        O  0.33200863  0.98914896  0.81761330    -0.75750
C725        C  0.30471639  0.98714814  0.82297199     1.04870
O726        O  0.27722276  0.95918550  0.72745695    -0.83070
O727        O  0.30629777  0.02178875  0.70068350    -0.80130
C728        C  0.32164288  0.01805604  0.67575231     1.00410
O729        O  0.34635015  0.01521936  0.68147643    -0.80160
O730        O  0.38924865  0.00065013  0.71423959    -0.82770
C731        C  0.37554932  0.96953781  0.71698380     1.04880
O732        O  0.34968585  0.95297626  0.73440201    -0.75590
O733        O  0.29301336  0.93733013  0.76779793    -0.75730
C734        C  0.27667353  0.93440117  0.74059558     1.04840
Cr735      Cr  0.30083715  0.00332031  0.74935140     1.93740
Cr736      Cr  0.37211043  0.03118263  0.72460004     1.93210
Cr737      Cr  0.34067820  0.97231082  0.77478076     1.39100
O738        O  0.33803398  0.00228515  0.74960184    -1.20820
O739        O  0.15486279  0.78163668  0.59972295    -0.83070
O740        O  0.16802717  0.79809182  0.66895332    -0.80120
C741        C  0.16099185  0.77174042  0.68449795     1.00390
O742        O  0.17785216  0.75813428  0.67990966    -0.80150
O743        O  0.22082707  0.74229140  0.64778065    -0.82800
C744        C  0.20659930  0.72498989  0.62129813     1.04920
O745        O  0.19998582  0.73705757  0.59555104    -0.75560
O746        O  0.18554830  0.77859656  0.55859193    -0.75750
C747        C  0.15809817  0.77405442  0.56927343     1.04870
O748        O  0.21225305  0.84213765  0.58104056    -0.83070
O749        O  0.22880478  0.85521112  0.65028299    -0.80130
C750        C  0.23621769  0.85184623  0.68076295     1.00410
O751        O  0.23138047  0.82428504  0.69143741    -0.80160
O752        O  0.27270689  0.80956440  0.65447409    -0.82770
C753        C  0.28472418  0.80292057  0.62869970     1.04880
O754        O  0.26739223  0.78871867  0.60222009    -0.75590
O755        O  0.25187390  0.83184963  0.56998876    -0.75730
C756        C  0.23847139  0.84889234  0.56539525     1.04840
Cr757      Cr  0.19281756  0.81742227  0.62499998     1.93740
Cr758      Cr  0.22483287  0.78444237  0.66507878     1.93210
Cr759      Cr  0.22533177  0.78492291  0.58491195     1.39100
O760        O  0.21437556  0.79554467  0.62499173    -1.20820
O761        O  0.36357340  0.20428072  0.91872862    -0.83070
O762        O  0.36586478  0.21917547  0.84925298    -0.80120
C763        C  0.37814341  0.22926970  0.81958824     1.00390
O764        O  0.40266799  0.22743995  0.80929464    -0.80150
O765        O  0.45829134  0.27078042  0.84763585    -0.82800
C766        C  0.47664776  0.28345455  0.87383151     1.04920
O767        O  0.47422940  0.26560531  0.89948321    -0.75560
O768        O  0.41347805  0.24580605  0.93034518    -0.75750
C769        C  0.38246613  0.23133794  0.93392021     1.04870
O770        O  0.37023739  0.14880684  0.90100570    -0.83070
O771        O  0.36660109  0.16070460  0.83135201    -0.80130
C772        C  0.38759260  0.15660481  0.81527672     1.00410
O773        O  0.41821178  0.17647544  0.81916429    -0.80160
O774        O  0.47618390  0.22071323  0.85280488    -0.82770
C775        C  0.47872643  0.20536757  0.87840514     1.04880
O776        O  0.46025591  0.19858867  0.90458323    -0.75350
O777        O  0.40327919  0.18102069  0.94208999    -0.75730
C778        C  0.38142288  0.15270202  0.93141950     1.04840
Cr779      Cr  0.37039592  0.18534563  0.87511115     1.93740
Cr780      Cr  0.43695454  0.22283949  0.83563678     1.93210
Cr781      Cr  0.43604854  0.22179378  0.91569795     1.39100
O782        O  0.41446706  0.21002163  0.87539975    -1.20820
O783        O  0.10726808  0.51976737  0.67797991    -0.83070
O784        O  0.16709316  0.55890692  0.64748502    -0.80120
C785        C  0.16626043  0.54154107  0.62187935     1.00390
O786        O  0.14989399  0.53901553  0.59511607    -0.80150
O787        O  0.09449729  0.52585424  0.56062602    -0.82800
C788        C  0.07323093  0.49888300  0.57488985     1.04920
O789        O  0.06184296  0.49820434  0.60439507    -0.75560
O790        O  0.05932110  0.51555710  0.67058783    -0.75750
C791        C  0.07630236  0.50346167  0.68070816     1.04870
O792        O  0.09920326  0.57735813  0.68890485    -0.83070
O793        O  0.15579982  0.61437554  0.65311948    -0.80130
C794        C  0.17168259  0.62671250  0.62561504     1.00410
O795        O  0.17065872  0.60858225  0.60084178    -0.80160
O796        O  0.11284378  0.59521784  0.57126836    -0.82770
C797        C  0.08226550  0.58385062  0.56887140     1.04880
O798        O  0.06210855  0.55506894  0.57926683    -0.75590
O799        O  0.06841520  0.57656380  0.64546631    -0.75730
C800        C  0.08010259  0.58595755  0.67522364     1.04840
Cr801      Cr  0.13108549  0.56696811  0.66440515     1.93740
Cr802      Cr  0.13062888  0.56661086  0.58450218     1.93210
Cr803      Cr  0.06591692  0.53769922  0.62490265     1.39100
O804        O  0.10953436  0.55717488  0.62461090    -1.20820
O805        O  0.95377158  0.27719395  0.97946073    -0.83070
O806        O  0.01616511  0.30364310  0.95168332    -0.80120
C807        C  0.01414517  0.32030237  0.92695060     1.00390
O808        O  0.01207231  0.34535219  0.93303406    -0.80150
O809        O  0.99884829  0.38889651  0.96596981    -0.82800
C810        C  0.96777398  0.37588218  0.96915232     1.04920
O811        O  0.95094257  0.35037248  0.98699309    -0.75560
O812        O  0.93439786  0.29401224  0.52135549    -0.75750
C813        C  0.93003692  0.27794017  0.99364772     1.04870
O814        O  0.98040545  0.28553137  0.54976210    -0.83070
O815        O  0.04254082  0.31999831  0.52206232    -0.80130
C816        C  0.06743191  0.34511899  0.50945861     1.00410
O817        O  0.06456943  0.35970799  0.98302362    -0.80160
O818        O  0.04775216  0.39894946  0.51672228    -0.82770
C819        C  0.03111035  0.40791876  0.53373892     1.04880
O820        O  0.00008486  0.38975213  0.53656103    -0.75590
O821        O  0.98783648  0.33265119  0.56925024    -0.75730
C822        C  0.98455431  0.30482838  0.57477541     1.04840
Cr823      Cr  0.99827638  0.29893782  0.00069263     1.93740
Cr824      Cr  0.02867707  0.37066702  0.97614283     1.93210
Cr825      Cr  0.97040237  0.34127826  0.52699402     1.39100
O826        O  0.99920669  0.33711799  0.00120913    -1.20820
O827        O  0.98316142  0.28753028  0.70210241    -0.83070
O828        O  0.04593361  0.32515335  0.72869764    -0.80120
C829        C  0.07024323  0.35047608  0.74188240     1.00390
O830        O  0.06639774  0.36399478  0.76848127    -0.80150
O831        O  0.04750830  0.40189355  0.73465330    -0.82800
C832        C  0.03007946  0.40963826  0.71711441     1.04920
O833        O  0.99909606  0.39045570  0.71450743    -0.75560
O834        O  0.98730457  0.33317767  0.68237365    -0.75750
C835        C  0.98536590  0.30591339  0.67698881     1.04870
O836        O  0.95752172  0.27837956  0.77251086    -0.83070
O837        O  0.02013305  0.30751183  0.79923289    -0.80130
C838        C  0.01642753  0.32286904  0.82417485     1.00410
O839        O  0.01358706  0.34757917  0.81846294    -0.80160
O840        O  0.99897424  0.39046596  0.78573562    -0.82770
C841        C  0.96786377  0.37677544  0.78305893     1.04880
O842        O  0.95126074  0.35087278  0.76569691    -0.75590
O843        O  0.93559175  0.29416967  0.73225134    -0.75730
C844        C  0.93271351  0.27781032  0.75942134     1.04840
Cr845      Cr  0.00162957  0.30203899  0.75057663     1.93740
Cr846      Cr  0.02948292  0.37332140  0.77532133     1.93210
Cr847      Cr  0.97053123  0.34184472  0.72525605     1.39100
O848        O  0.00055752  0.33922262  0.75036157    -1.20820
O849        O  0.51854108  0.10921297  0.82209378    -0.83070
O850        O  0.55768053  0.16903383  0.85261434    -0.80120
C851        C  0.54030251  0.16819909  0.87820426     1.00390
O852        O  0.53775989  0.15183717  0.90497767    -0.80150
O853        O  0.52453626  0.09641891  0.93946525    -0.82800
C854        C  0.49757435  0.07517020  0.92517439     1.04920
O855        O  0.49691007  0.06380628  0.89565934    -0.75560
O856        O  0.51431949  0.06125876  0.82949621    -0.75750
C857        C  0.50223857  0.07824431  0.81935059     1.04870
O858        O  0.57611377  0.10111187  0.81124210    -0.83070
O859        O  0.61311656  0.15772668  0.84704046    -0.80130
C860        C  0.62543065  0.17362185  0.87454438     1.00410
O861        O  0.60729414  0.17257820  0.89931561    -0.80160
O862        O  0.59389139  0.11472337  0.92888017    -0.82770
C863        C  0.58248514  0.08413232  0.93126951     1.04880
O864        O  0.55369938  0.06400968  0.92087298    -0.75590
O865        O  0.57526435  0.07030889  0.85469956    -0.75730
C866        C  0.58465212  0.08196337  0.82492994     1.04840
Cr867      Cr  0.56572908  0.13301647  0.83571353     1.93740
Cr868      Cr  0.56531828  0.13254712  0.91562294     1.93210
Cr869      Cr  0.53640124  0.06784137  0.87520998     1.39100
O870        O  0.55590248  0.11146247  0.87550688    -1.20820
O871        O  0.73255333  0.05603074  0.77056458    -0.83070
O872        O  0.70610915  0.99358513  0.79825396    -0.80120
C873        C  0.68944991  0.99558771  0.82299641     1.00390
O874        O  0.66440206  0.99766293  0.81692716    -0.80150
O875        O  0.62086111  0.01091281  0.78402633    -0.82800
C876        C  0.63388623  0.04199872  0.78089283     1.04920
O877        O  0.65938330  0.05884059  0.76304429    -0.75560
O878        O  0.71577097  0.07533478  0.72867021    -0.75750
C879        C  0.73178127  0.07977954  0.75643109     1.04870
O880        O  0.72420318  0.02929406  0.70023748    -0.83070
O881        O  0.68967582  0.96712548  0.72792212    -0.80130
C882        C  0.66454197  0.94224382  0.74053529     1.00410
O883        O  0.65007281  0.94520544  0.76688749    -0.80160
O884        O  0.61081630  0.96201149  0.73335046    -0.82770
C885        C  0.60185990  0.97864765  0.71631201     1.04880
O886        O  0.62002348  0.00967674  0.71347465    -0.75590
O887        O  0.67709751  0.02188955  0.68076462    -0.75730
C888        C  0.70490336  0.02514267  0.67522921     1.04840
Cr889      Cr  0.71082760  0.01152602  0.74926751     1.93740
Cr890      Cr  0.63910803  0.98109425  0.77380703     1.93210
Cr891      Cr  0.66850020  0.03934811  0.72302671     1.39100
O892        O  0.67265401  0.01059496  0.74876411    -1.20820
O893        O  0.72216685  0.02646236  0.54788559    -0.83070
O894        O  0.68447821  0.96369394  0.52123944    -0.80120
C895        C  0.65912776  0.93940932  0.50805375     1.00390
O896        O  0.64569912  0.94332353  0.98140364    -0.80150
O897        O  0.60781992  0.96222841  0.51522293    -0.82800
C898        C  0.60009796  0.97962939  0.53283538     1.04920
O899        O  0.61928525  0.01061344  0.53549509    -0.75560
O900        O  0.67652129  0.02229940  0.56762212    -0.75750
C901        C  0.70378354  0.02424274  0.57300518     1.04870
O902        O  0.73139337  0.05219737  0.97750054    -0.83070
O903        O  0.70222761  0.98957420  0.95070953    -0.80130
C904        C  0.68691278  0.99333439  0.92576491     1.00410
O905        O  0.66224844  0.99624664  0.93147381    -0.80160
O906        O  0.61940460  0.01092465  0.96420710    -0.82770
C907        C  0.63312797  0.04203979  0.96697984     1.04880
O908        O  0.65899469  0.05856333  0.98440792    -0.75590
O909        O  0.71559737  0.07408328  0.51780829    -0.75730
C910        C  0.73196765  0.07699888  0.99063658     1.04840
Cr911      Cr  0.70769499  0.00804528  0.99938368     1.93740
Cr912      Cr  0.63645991  0.98031483  0.97458113     1.93210
Cr913      Cr  0.66790855  0.03916573  0.52477614     1.39100
O914        O  0.67054278  0.00916596  0.99960428    -1.20820
O915        O  0.77976766  0.15625791  0.90037039    -0.83070
O916        O  0.79623059  0.16933152  0.83112307    -0.80120
C917        C  0.76994618  0.16245859  0.81554539     1.00390
O918        O  0.75647206  0.17943886  0.82015286    -0.80150
O919        O  0.74092790  0.22260555  0.85234355    -0.82800
C920        C  0.72363513  0.20844394  0.87885032     1.04920
O921        O  0.73566467  0.20178417  0.90459585    -0.75560
O922        O  0.77704720  0.18711564  0.94151606    -0.75750
C923        C  0.77231826  0.15958907  0.93084570     1.04870
O924        O  0.84044915  0.21346326  0.91899927    -0.83070
O925        O  0.85353485  0.22994046  0.84975154    -0.80130
C926        C  0.85021602  0.23742382  0.81928703     1.00410
O927        O  0.82271749  0.23275799  0.80862923    -0.80160
O928        O  0.80827140  0.27429285  0.84558301    -0.82770
C929        C  0.80169565  0.28637864  0.87134632     1.04880
O930        O  0.78750008  0.26909023  0.89785116    -0.75590
O931        O  0.83048890  0.25332057  0.92999495    -0.75730
C932        C  0.84738333  0.23975993  0.93459511     1.04840
Cr933      Cr  0.81566322  0.19409235  0.87506189     1.93740
Cr934      Cr  0.78296669  0.22640872  0.83499973     1.93210
Cr935      Cr  0.78353210  0.22695168  0.91516681     1.39100
O936        O  0.79400280  0.21586658  0.87507643    -1.20820
O937        O  0.90096682  0.49165493  0.92800632    -0.83070
O938        O  0.84113454  0.45242989  0.89750202    -0.80120
C939        C  0.84193767  0.46977036  0.87189255     1.00390
O940        O  0.85835165  0.47236113  0.84515060    -0.80150
O941        O  0.91381105  0.48563605  0.81071382    -0.82800
C942        C  0.93509405  0.51259261  0.82499624     1.04920
O943        O  0.94646180  0.51324674  0.85450525    -0.75560
O944        O  0.94890805  0.49583832  0.92068704    -0.75750
C945        C  0.93193422  0.50795851  0.93075427     1.04870
O946        O  0.90905483  0.43408163  0.93896291    -0.83070
O947        O  0.85249023  0.39702978  0.90314668    -0.80130
C948        C  0.83663515  0.38468258  0.87562772     1.00410
O949        O  0.83767007  0.40280677  0.85083848    -0.80160
O950        O  0.89550336  0.41627192  0.82128775    -0.82770
C951        C  0.92608107  0.42765179  0.81890737     1.04880
O952        O  0.94622668  0.45641906  0.82934521    -0.75590
O953        O  0.93983190  0.43485080  0.89552723    -0.75730
C954        C  0.92812948  0.42545338  0.92527847     1.04840
Cr955      Cr  0.87717090  0.44444003  0.91443975     1.93740
Cr956      Cr  0.87767855  0.44482911  0.83453696     1.93210
Cr957      Cr  0.94236308  0.47373666  0.87498848     1.39100
O958        O  0.89874526  0.45425454  0.87465841    -1.20820
O959        O  0.05444312  0.73423800  0.72938737    -0.83070
O960        O  0.99197707  0.70769090  0.70175757    -0.80120
C961        C  0.99393623  0.69098290  0.67703311     1.00390
O962        O  0.99600045  0.66592909  0.68313463    -0.80150
O963        O  0.00933970  0.62246486  0.71609449    -0.82800
C964        C  0.04042818  0.63550580  0.71915275     1.04920
O965        O  0.05730803  0.66107279  0.73689949    -0.75560
O966        O  0.07383773  0.71751663  0.77124791    -0.75750
C967        C  0.07822948  0.73352486  0.74349648     1.04870
O968        O  0.02777731  0.72592193  0.79975768    -0.83070
O969        O  0.96558721  0.69133004  0.77213781    -0.80130
C970        C  0.94069981  0.66617593  0.75956244     1.00410
O971        O  0.94364259  0.65166377  0.73324109    -0.80160
O972        O  0.96055168  0.61248955  0.76685799    -0.82770
C973        C  0.97724589  0.60356482  0.78384312     1.04880
O974        O  0.00827522  0.62176082  0.78659843    -0.75590
O975        O  0.02050865  0.67886898  0.81925838    -0.75730
C976        C  0.02371595  0.70666093  0.82478124     1.04840
Cr977      Cr  0.00996405  0.71248472  0.75074003     1.93740
Cr978      Cr  0.97953257  0.64071437  0.72632053     1.93210
Cr979      Cr  0.03789024  0.67023526  0.77696127     1.39100
O980        O  0.00906881  0.67432386  0.75127643    -1.20820
O981        O  0.02500322  0.72390250  0.95214594    -0.83070
O982        O  0.96220711  0.68619050  0.97869994    -0.80120
C983        C  0.93790348  0.66083056  0.99184721     1.00390
O984        O  0.94178648  0.64734560  0.51846106    -0.80150
O985        O  0.96075136  0.60952506  0.98463039    -0.82800
C986        C  0.97820244  0.60181005  0.96709400     1.04920
O987        O  0.00918609  0.62101377  0.96450979    -0.75560
O988        O  0.02094714  0.67829803  0.93240315    -0.75750
C989        C  0.02285415  0.70554852  0.92702174     1.04870
O990        O  0.05066029  0.73305530  0.52258960    -0.83070
O991        O  0.98801411  0.70384167  0.54928750    -0.80130
C992        C  0.99169924  0.68846099  0.57422274     1.00410
O993        O  0.99457584  0.66377543  0.56848895    -0.80160
O994        O  0.00929389  0.62097024  0.53573273    -0.82770
C995        C  0.04041104  0.63469230  0.53307180     1.04880
O996        O  0.05699706  0.66061085  0.51572930    -0.75590
O997        O  0.07260749  0.71731497  0.98233416    -0.75730
C998        C  0.07548996  0.73365529  0.50950693     1.04840
Cr999      Cr  0.00654661  0.70936674  0.50062603     1.93740
Cr1000     Cr  0.97874164  0.63807357  0.52531572     1.93210
Cr1001     Cr  0.03770693  0.66962868  0.97529838     1.39100
O1002       O  0.00766190  0.67220650  0.50038870    -1.20820
O1003       O  0.59032144  0.49284927  0.82175640    -0.83070
O1004       O  0.60785980  0.45231184  0.85165752    -0.80120
C1005       C  0.62519733  0.46961753  0.87716857     1.00390
O1006       O  0.61153798  0.47142696  0.90439781    -0.80150
O1007       O  0.57207743  0.48748968  0.93924186    -0.82800
C1008       C  0.57961026  0.51502931  0.92532524     1.04920
O1009       O  0.56879102  0.51631718  0.89607837    -0.75560
O1010       O  0.54883359  0.50048208  0.82959838    -0.75750
C1011       C  0.57795887  0.51088979  0.81939359     1.04870
O1012       O  0.52187942  0.43715493  0.81075659    -0.83070
O1013       O  0.53820517  0.39792432  0.84562054    -0.80130
C1014       C  0.54006799  0.38432341  0.87286248     1.00410
O1015       O  0.55735512  0.40169397  0.89835806    -0.80160
O1016       O  0.51658246  0.41894463  0.92825938    -0.82770
C1017       C  0.49843073  0.43118667  0.93061830     1.04880
O1018       O  0.50872461  0.46028943  0.92039909    -0.75590
O1019       O  0.49296253  0.44028852  0.85391894    -0.75730
C1020       C  0.49430618  0.42953452  0.82465298     1.04840
Cr1021     Cr  0.56391364  0.44573362  0.83505989     1.93740
Cr1022     Cr  0.56370748  0.44553599  0.91495218     1.93210
Cr1023     Cr  0.53136335  0.47782064  0.87499936     1.39100
O1024       O  0.55314106  0.45621995  0.87500411    -1.20820
O1025       O  0.27147247  0.31605824  0.72704513    -0.83070
O1026       O  0.29893199  0.28134254  0.70143715    -0.80120
C1027       C  0.31597504  0.30011835  0.67659323     1.00390
O1028       O  0.34149961  0.32756101  0.68259842    -0.80150
O1029       O  0.38559086  0.38584665  0.71501690    -0.82800
C1030       C  0.37315876  0.40418481  0.71634883     1.04920
O1031       O  0.34659804  0.39517078  0.73215446    -0.75560
O1032       O  0.28873706  0.35566878  0.76575969    -0.75750
C1033       C  0.27147589  0.34083775  0.73931551     1.04870
O1034       O  0.27984339  0.30044958  0.79861195    -0.83070
O1035       O  0.31456107  0.27299697  0.77299369    -0.80130
C1036       C  0.33932552  0.27299426  0.76069764     1.00410
O1037       O  0.35413686  0.29025044  0.73424573    -0.80160
O1038       O  0.39364361  0.34811670  0.76785341    -0.82770
C1039       C  0.40265864  0.37468174  0.78365758     1.04880
O1040       O  0.38432338  0.38711657  0.78499494    -0.75590
O1041       O  0.32604967  0.34304193  0.81743087    -0.75730
C1042       C  0.29862254  0.31750336  0.82344937     1.04840
Cr1043     Cr  0.29370564  0.29521678  0.75002206     1.93740
Cr1044     Cr  0.36599228  0.33742797  0.72638317     1.93210
Cr1045     Cr  0.33591025  0.36752287  0.77363227     1.39100
O1046       O  0.33194867  0.33346875  0.75001327    -1.20820
O1047       O  0.28136525  0.30178943  0.95159513    -0.83070
O1048       O  0.31666653  0.27462958  0.97729342    -0.80120
C1049       C  0.34154729  0.27492271  0.98989639     1.00390
O1050       O  0.35584628  0.29211410  0.51641103    -0.80150
O1051       O  0.39570220  0.35021415  0.98260518    -0.82800
C1052       C  0.40429609  0.37647472  0.96622685     1.04920
O1053       O  0.38577374  0.38861294  0.96464591    -0.75560
O1054       O  0.32743435  0.34418784  0.93229396    -0.75750
C1055       C  0.29989648  0.31859642  0.92656995     1.04870
O1056       O  0.27314866  0.31814313  0.52276741    -0.83070
O1057       O  0.30030785  0.28283916  0.54846487    -0.80130
C1058       C  0.31710610  0.30137095  0.57349194     1.00410
O1059       O  0.34269432  0.32891478  0.56777629    -0.80160
O1060       O  0.38711445  0.38726747  0.53543057    -0.82770
C1061       C  0.37497135  0.40578584  0.53384268     1.04880
O1062       O  0.34871268  0.39718266  0.51746416    -0.75590
O1063       O  0.29062639  0.35732371  0.98367086    -0.75730
C1064       C  0.27343817  0.34302325  0.51015890     1.04840
Cr1065     Cr  0.29537945  0.29689924  0.50002391     1.93740
Cr1066     Cr  0.36757229  0.33911451  0.52399572     1.93210
Cr1067     Cr  0.33762420  0.36905777  0.97608206     1.39100
O1068       O  0.33366473  0.33512179  0.00004225    -1.20820
O1069       O  0.49122184  0.59188950  0.67822916    -0.83070
O1070       O  0.45067249  0.60937691  0.64829481    -0.80120
C1071       C  0.46799988  0.62671643  0.62279532     1.00390
O1072       O  0.46979604  0.61305547  0.59556099    -0.80150
O1073       O  0.48589694  0.57362406  0.56073190    -0.82800
C1074       C  0.51344180  0.58119494  0.57465414     1.04920
O1075       O  0.51474026  0.57039479  0.60390921    -0.75560
O1076       O  0.49892226  0.55044088  0.67039348    -0.75750
C1077       C  0.50929429  0.57956421  0.68059625     1.04870
O1078       O  0.43556581  0.52341379  0.68922110    -0.83070
O1079       O  0.39630627  0.53969211  0.65433551    -0.80130
C1080       C  0.38269835  0.54153994  0.62709130     1.00410
O1081       O  0.40006729  0.55882785  0.60159296    -0.80160
O1082       O  0.41737944  0.51808614  0.57172165    -0.82770
C1083       C  0.42964671  0.49995474  0.56938118     1.04880
O1084       O  0.45875333  0.51028160  0.57959786    -0.75590
O1085       O  0.43876646  0.49451283  0.64607928    -0.75730
C1086       C  0.42798679  0.49584445  0.67533420     1.04840
Cr1087     Cr  0.44411490  0.56543892  0.66490802     1.93740
Cr1088     Cr  0.44393100  0.56521958  0.58501513     1.93210
Cr1089     Cr  0.47626885  0.53294020  0.62499285     1.39100
O1090       O  0.45462553  0.55467589  0.62497256    -1.20820
O1091       O  0.69323805  0.73785667  0.52300617    -0.83070
O1092       O  0.72786178  0.71030380  0.54857531    -0.80120
C1093       C  0.70909459  0.69320697  0.57340517     1.00390
O1094       O  0.68166827  0.66767105  0.56737673    -0.80150
O1095       O  0.62338504  0.62368152  0.53493420    -0.82800
C1096       C  0.60508396  0.63615585  0.53371571     1.04920
O1097       O  0.61411737  0.66277003  0.51800181    -0.75560
O1098       O  0.65358269  0.72057129  0.98437111    -0.75750
C1099       C  0.66849872  0.73792632  0.51075059     1.04870
O1100       O  0.70877747  0.72943740  0.95140974    -0.83070
O1101       O  0.73625552  0.69473934  0.97697630    -0.80130
C1102       C  0.73629962  0.66998849  0.98924623     1.00410
O1103       O  0.71893394  0.65509031  0.51564980    -0.80160
O1104       O  0.66115500  0.61568233  0.98199590    -0.82770
C1105       C  0.63455299  0.60667398  0.96627564     1.04880
O1106       O  0.62209926  0.62499479  0.96506154    -0.75590
O1107       O  0.66610270  0.68327021  0.93262051    -0.75730
C1108       C  0.69165955  0.71067793  0.92658445     1.04840
Cr1109     Cr  0.71400890  0.71558589  0.49999158     1.93740
Cr1110     Cr  0.67177789  0.64326555  0.52353400     1.93210
Cr1111     Cr  0.64171322  0.67339597  0.97647216     1.39100
O1112       O  0.67574701  0.67736281  0.49999386    -1.20820
O1113       O  0.70734724  0.72790922  0.79842903    -0.83070
O1114       O  0.73451729  0.69261682  0.77277538    -0.80120
C1115       C  0.73426537  0.66775051  0.76019303     1.00390
O1116       O  0.71702518  0.65330707  0.73369598    -0.80150
O1117       O  0.65892757  0.61360816  0.76755244    -0.82800
C1118       C  0.63263322  0.60502376  0.78385326     1.04920
O1119       O  0.62048945  0.62354220  0.78534427    -0.75560
O1120       O  0.66487542  0.68187991  0.81771195    -0.75750
C1121       C  0.69049345  0.70939608  0.82344667     1.04870
O1122       O  0.69115407  0.73613480  0.72720819    -0.83070
O1123       O  0.72634543  0.70886012  0.70155514    -0.80130
C1124       C  0.70781995  0.69203352  0.67653307     1.00410
O1125       O  0.68028226  0.66644071  0.68225970    -0.80160
O1126       O  0.62192095  0.62210201  0.71462306    -0.82770
C1127       C  0.60343399  0.63428077  0.71611777     1.04880
O1128       O  0.61205828  0.66059249  0.73241096    -0.75590
O1129       O  0.65183604  0.71868649  0.76626938    -0.75730
C1130       C  0.66630742  0.73592302  0.73977925     1.04840
Cr1131     Cr  0.71230180  0.71384322  0.74999179     1.93740
Cr1132     Cr  0.67004911  0.64162773  0.72608769     1.93210
Cr1133     Cr  0.64007632  0.67168215  0.77387788     1.39100
O1134       O  0.67403289  0.67560941  0.74998519    -1.20820
O1135       O  0.20272195  0.36500646  0.58123816    -0.83070
O1136       O  0.21759577  0.36729642  0.65072547    -0.80120
C1137       C  0.22769239  0.37959062  0.68038649     1.00390
O1138       O  0.22584040  0.40410827  0.69067352    -0.80150
O1139       O  0.26913149  0.45977911  0.65235606    -0.82800
C1140       C  0.28180909  0.47812356  0.62615007     1.04920
O1141       O  0.26396011  0.47568681  0.60049157    -0.75560
O1142       O  0.24421027  0.41493594  0.56962888    -0.75750
C1143       C  0.22977786  0.38392046  0.56606113     1.04870
O1144       O  0.14720957  0.37160726  0.59893699    -0.83070
O1145       O  0.15908686  0.36795669  0.66858893    -0.80130
C1146       C  0.15494729  0.38892386  0.68466283     1.00410
O1147       O  0.17480219  0.41955421  0.68080438    -0.80160
O1148       O  0.21897552  0.47756889  0.64718395    -0.82770
C1149       C  0.20362335  0.48009322  0.62157862     1.04880
O1150       O  0.19691584  0.46165545  0.59537943    -0.75590
O1151       O  0.17940909  0.40468873  0.55786853    -0.75730
C1152       C  0.15109718  0.38281546  0.56853304     1.04840
Cr1153     Cr  0.18375734  0.37179939  0.62484587     1.93740
Cr1154     Cr  0.22117798  0.43836820  0.66433915     1.93210
Cr1155     Cr  0.22016294  0.43747780  0.58427274     1.39100
O1156       O  0.20839648  0.41588305  0.62456875    -1.20820
O1157       O  0.64457584  0.80691101  0.66874679    -0.83070
O1158       O  0.64229287  0.79205606  0.59926280    -0.80120
C1159       C  0.62999801  0.78194839  0.56960630     1.00390
O1160       O  0.60549114  0.78379969  0.55930358    -0.80150
O1161       O  0.54984449  0.74040117  0.59758639    -0.82800
C1162       C  0.53150383  0.72767407  0.62378875     1.04920
O1163       O  0.53392509  0.74550228  0.64947095    -0.75560
O1164       O  0.59467751  0.76535616  0.68030948    -0.75750
C1165       C  0.62568402  0.77982656  0.68389237     1.04870
O1166       O  0.63789644  0.86239250  0.65106603    -0.83070
O1167       O  0.64156775  0.85054812  0.58140047    -0.80130
C1168       C  0.62058758  0.85466623  0.56532480     1.00410
O1169       O  0.58996297  0.83477542  0.56918857    -0.80160
O1170       O  0.53197438  0.79048190  0.60281583    -0.82770
C1171       C  0.52941929  0.80579191  0.62843955     1.04880
O1172       O  0.54785991  0.81252855  0.65463275    -0.75590
O1173       O  0.60484716  0.83015373  0.69213229    -0.75730
C1174       C  0.62670103  0.85849016  0.68147716     1.04840
Cr1175     Cr  0.63775316  0.82586929  0.62514346     1.93740
Cr1176     Cr  0.57120292  0.78837869  0.58563999     1.93210
Cr1177     Cr  0.57209122  0.78935208  0.66570937     1.39100
O1178       O  0.59367946  0.80117279  0.62541441    -1.20820
O1179       O  0.80523657  0.64606135  0.83124320    -0.83070
O1180       O  0.79033837  0.64372563  0.90072222    -0.80120
C1181       C  0.78029194  0.63144985  0.93039670     1.00390
O1182       O  0.78223707  0.60699525  0.94070988    -0.80150
O1183       O  0.73889499  0.55130718  0.90244725    -0.82800
C1184       C  0.72616981  0.53298313  0.87623172     1.04920
O1185       O  0.74399876  0.53540684  0.85054883    -0.75560
O1186       O  0.76376296  0.59612106  0.81966919    -0.75750
C1187       C  0.77817626  0.62712746  0.81608374     1.04870
O1188       O  0.86078701  0.63952900  0.84895595    -0.83070
O1189       O  0.84890968  0.64316947  0.91860466    -0.80130
C1190       C  0.85312412  0.62222952  0.93463739     1.00410
O1191       O  0.83329441  0.59158912  0.93077198    -0.80160
O1192       O  0.78905209  0.53353559  0.89720257    -0.82770
C1193       C  0.80438686  0.53101469  0.87158292     1.04880
O1194       O  0.81107076  0.54943912  0.84538263    -0.75590
O1195       O  0.82861224  0.60641000  0.80789096    -0.75730
C1196       C  0.85692165  0.62831515  0.81855698     1.04840
Cr1197     Cr  0.82421612  0.63929091  0.87485677     1.93740
Cr1198     Cr  0.78687684  0.57273713  0.91436855     1.93210
Cr1199     Cr  0.78782435  0.57360596  0.83429826     1.39100
O1200       O  0.79961015  0.59520691  0.87458758    -1.20820
C1201       C  0.65303872  0.75381837  0.72270351    -0.11000
C1202       C  0.64018641  0.76586029  0.70583423    -0.12550
C1203       C  0.75212841  0.65443838  0.77725828    -0.11000
C1204       C  0.76417283  0.64158666  0.79412774    -0.12550
C1205       C  0.69990657  0.71993570  0.89063158    -0.11000
C1206       C  0.69933169  0.71930027  0.85919750    -0.12550
C1207       C  0.71773338  0.70087277  0.64078656    -0.11000
C1208       C  0.71836600  0.70145052  0.60935363    -0.12550
C1209       C  0.65604782  0.75624469  0.52843171    -0.11000
C1210       C  0.64442711  0.76862035  0.54668815    -0.12550
C1211       C  0.76694674  0.64585644  0.95332369    -0.11000
C1212       C  0.75458321  0.65749414  0.97157358    -0.12550
C1213       C  0.57069015  0.61598125  0.70234305    -0.11000
C1214       C  0.54235054  0.59918876  0.69328148    -0.12550
C1215       C  0.54420022  0.60167193  0.55742506    -0.11000
C1216       C  0.57219341  0.61815377  0.54719665    -0.12550
C1217       C  0.31703744  0.50266948  0.62545493    -0.11000
C1218       C  0.34676296  0.52221173  0.62512851    -0.12550
C1219       C  0.48741247  0.66267494  0.62474459    -0.11000
C1220       C  0.50697121  0.69241378  0.62444481    -0.12550
C1221       C  0.39324023  0.43853787  0.54763087    -0.11000
C1222       C  0.40999413  0.46688806  0.55669833    -0.12550
C1223       C  0.25568303  0.35645211  0.52724302    -0.11000
C1224       C  0.24373746  0.36940955  0.54410556    -0.12550
C1225       C  0.39113080  0.43708689  0.70285847    -0.11000
C1226       C  0.40755133  0.46508924  0.69261111    -0.12550
C1227       C  0.24098253  0.36512619  0.70333217    -0.11000
C1228       C  0.25327467  0.35342101  0.72160458    -0.12550
C1229       C  0.30824975  0.29145432  0.60922940    -0.11000
C1230       C  0.30768932  0.29083161  0.64065933    -0.12550
C1231       C  0.28998566  0.30975377  0.89082462    -0.11000
C1232       C  0.28935919  0.30920966  0.85939182    -0.12550
C1233       C  0.46356006  0.40908631  0.80737467    -0.11000
C1234       C  0.43555970  0.39265790  0.79713580    -0.12550
C1235       C  0.46537904  0.41151198  0.94333011    -0.11000
C1236       C  0.43703950  0.39474898  0.95242212    -0.12550
C1237       C  0.59754233  0.54394947  0.80671033    -0.11000
C1238       C  0.61431830  0.57228931  0.79764401    -0.12550
C1239       C  0.60006902  0.54579307  0.94255175    -0.11000
C1240       C  0.61654252  0.57378754  0.95278296    -0.12550
C1241       C  0.66115576  0.48897651  0.87524154    -0.11000
C1242       C  0.69090318  0.50848314  0.87555521    -0.12550
C1243       C  0.88103950  0.63414820  0.95782945    -0.11000
C1244       C  0.90595971  0.64628896  0.97525970    -0.12550
C1245       C  0.99174129  0.69783140  0.60983600    -0.11000
C1246       C  0.99256439  0.69888115  0.64119011    -0.12550
C1247       C  0.02407720  0.71605951  0.86030488    -0.11000
C1248       C  0.02375103  0.71552330  0.89160554    -0.12550
C1249       C  0.88486607  0.64145027  0.79520591    -0.11000
C1250       C  0.90919630  0.65290993  0.77687990    -0.12550
C1251       C  0.94834721  0.54099825  0.94358381    -0.11000
C1252       C  0.96268975  0.56936660  0.95276698    -0.12550
C1253       C  0.94770720  0.54323407  0.80776489    -0.11000
C1254       C  0.96096926  0.57104362  0.79737793    -0.12550
C1255       C  0.82489214  0.48796767  0.87317322    -0.11000
C1256       C  0.81434033  0.50664979  0.87250915    -0.12550
C1257       C  0.81007064  0.32031776  0.87068777    -0.11000
C1258       C  0.81932041  0.34940465  0.87188893    -0.12550
C1259       C  0.64456098  0.90744947  0.52462242    -0.11000
C1260       C  0.63244426  0.88254463  0.54208263    -0.12550
C1261       C  0.74901430  0.10811873  0.97283035    -0.11000
C1262       C  0.75987547  0.13213875  0.95436558    -0.12550
C1263       C  0.69632486  0.99340564  0.89017079    -0.11000
C1264       C  0.69738396  0.99423461  0.85882190    -0.12550
C1265       C  0.71374735  0.02512696  0.60841541    -0.11000
C1266       C  0.71428135  0.02546775  0.63971182    -0.12550
C1267       C  0.63980503  0.88641757  0.70485897    -0.11000
C1268       C  0.65125196  0.91073172  0.72321584    -0.12550
C1269       C  0.75636243  0.13530874  0.79167344    -0.11000
C1270       C  0.74654790  0.11114850  0.77364132    -0.12550
C1271       C  0.60362167  0.07116829  0.80649869    -0.11000
C1272       C  0.61802738  0.05823743  0.79523997    -0.12550
C1273       C  0.60233185  0.07161820  0.94417573    -0.11000
C1274       C  0.61732004  0.05854812  0.95320526    -0.12550
C1275       C  0.68975166  0.20018663  0.87952056    -0.11000
C1276       C  0.66068640  0.19097200  0.87830441    -0.12550
C1277       C  0.90162530  0.26073024  0.77725259    -0.11000
C1278       C  0.87764187  0.24985019  0.79575826    -0.12550
C1279       C  0.12708235  0.37705366  0.70789162    -0.11000
C1280       C  0.10218382  0.36496411  0.72533578    -0.12550
C1281       C  0.95146817  0.39267702  0.79686555    -0.11000
C1282       C  0.93853138  0.40777300  0.80594909    -0.12550
C1283       C  0.98418447  0.29542570  0.61028775    -0.11000
C1284       C  0.98449226  0.29595165  0.64158222    -0.12550
C1285       C  0.01548754  0.31237376  0.89111913    -0.11000
C1286       C  0.01632883  0.31344464  0.85977032    -0.12550
C1287       C  0.89865188  0.26310469  0.97650784    -0.11000
C1288       C  0.87450203  0.25327302  0.95847741    -0.12550
C1289       C  0.12318939  0.36972554  0.54516013    -0.11000
C1290       C  0.09891382  0.35833858  0.52677416    -0.12550
C1291       C  0.95156337  0.39179671  0.95489084    -0.11000
C1292       C  0.93875642  0.40633564  0.94368216    -0.12550
C1293       C  0.05684275  0.61881628  0.54687101    -0.11000
C1294       C  0.06981664  0.60374648  0.55593813    -0.12550
C1295       C  0.06943056  0.60504166  0.69363663    -0.11000
C1296       C  0.05661032  0.61956641  0.70486265    -0.12550
C1297       C  0.05990842  0.47044350  0.69358907    -0.11000
C1298       C  0.04560397  0.44208575  0.70280123    -0.12550
C1299       C  0.04743113  0.44045092  0.54724688    -0.11000
C1300       C  0.06066854  0.46825610  0.55764262    -0.12550
C1301       C  0.18321387  0.52323993  0.62318080    -0.11000
C1302       C  0.19369911  0.50449400  0.62251368    -0.12550
C1303       C  0.35192118  0.25479968  0.77838843    -0.11000
C1304       C  0.36365092  0.24252723  0.79664801    -0.12550
C1305       C  0.35497962  0.25718035  0.97279688    -0.11000
C1306       C  0.36793942  0.24525648  0.95590652    -0.12550
C1307       C  0.50119616  0.31867411  0.87451625    -0.11000
C1308       C  0.52074734  0.34839420  0.87483269    -0.12550
C1309       C  0.52198596  0.18512394  0.87686126    -0.11000
C1310       C  0.50319184  0.19554334  0.87749467    -0.12550
C1311       C  0.13378776  0.75821304  0.70829737    -0.11000
C1312       C  0.10959808  0.74837279  0.72628388    -0.12550
C1313       C  0.13061792  0.76163211  0.54579718    -0.11000
C1314       C  0.10658948  0.75074777  0.52734470    -0.12550
C1315       C  0.18900258  0.66198221  0.62186399    -0.11000
C1316       C  0.19823840  0.69106145  0.62064674    -0.12550
C1317       C  0.37576707  0.12877435  0.79200521    -0.11000
C1318       C  0.36371389  0.10389635  0.77452782    -0.12550
C1319       C  0.25962975  0.90328652  0.72279014    -0.11000
C1320       C  0.24873019  0.87928860  0.70429290    -0.12550
C1321       C  0.46923988  0.06184258  0.80642486    -0.11000
C1322       C  0.44089377  0.04748702  0.79718197    -0.12550
C1323       C  0.31220406  0.01792038  0.64015795    -0.11000
C1324       C  0.31111121  0.01705105  0.60881173    -0.12550
C1325       C  0.29471843  0.98624461  0.85836848    -0.11000
C1326       C  0.29415973  0.98589847  0.88966212    -0.12550
C1327       C  0.35691309  0.10053038  0.97319929    -0.11000
C1328       C  0.36831649  0.12479912  0.95480013    -0.12550
C1329       C  0.25207799  0.87598868  0.54146971    -0.11000
C1330       C  0.26195017  0.90014059  0.52342296    -0.12550
C1331       C  0.43913327  0.04928243  0.95277916    -0.11000
C1332       C  0.46694397  0.06257741  0.94240725    -0.12550
C1333       C  0.48626009  0.82613695  0.62686777    -0.11000
C1334       C  0.50499100  0.81565015  0.62752523    -0.12550
C1335       C  0.56767268  0.96404610  0.54719465    -0.11000
C1336       C  0.53932150  0.94962844  0.55641719    -0.12550
C1337       C  0.54154812  0.94894080  0.69237706    -0.11000
C1338       C  0.56934747  0.96229273  0.70278233    -0.12550
C1339       C  0.40633785  0.93999236  0.69412197    -0.11000
C1340       C  0.39137212  0.95306970  0.70317870    -0.12550
C1341       C  0.40497282  0.94031792  0.55640759    -0.11000
C1342       C  0.39055711  0.95322978  0.54515113    -0.12550
C1343       C  0.31864559  0.81125776  0.62930797    -0.11000
C1344       C  0.34773372  0.82053721  0.62809739    -0.12550
loop_ 
_geom_bond_atom_site_label_1 
_geom_bond_atom_site_label_2 
_geom_bond_distance 
_geom_bond_site_symmetry_2 
_ccdc_geom_bond_type 
O1          Cr19   1.978       .  S
O1            C9   1.256       .  A
O2          Cr19   2.023       .  S
O2            C3   1.269       .  A
C3            O4   1.257       .  A
C3          C661   1.442       .  S
O4          Cr20   1.969       .  S
O5          Cr20   2.019       .  S
O5            C6   1.270       .  A
C6            O7   1.251       .  A
C6          C665   1.412       .  S
O7          Cr21   1.936       .  S
O8          Cr21   1.989       .  S
O8            C9   1.256       .  A
C9          C664   1.423       .  S
O10         Cr19   2.032       .  S
O10          C18   1.273       .  A
O11         Cr19   1.964       .  S
O11          C12   1.256       .  A
C12          O13   1.265       .  A
C12         C672   1.433       .  S
O13         Cr20   2.008       .  S
O14         Cr20   1.980       .  S
O14          C15   1.255       .  A
C15          O16   1.256       .  A
C15         C667   1.424       .  S
O16         Cr21   1.987       .  S
O17         Cr21   1.940       .  S
O17          C18   1.252       .  A
C18         C669   1.422       .  S
Cr19         O22   1.766       .  S
Cr20         O22   1.768       .  S
Cr21         O22   1.767       .  S
O23         Cr41   1.977   1_554  S
O23          C31   1.260       .  A
O24         Cr41   2.035   1_544  S
O24          C25   1.269       .  A
C25          O26   1.253       .  A
C25         C652   1.441       .  S
O26         Cr42   1.960       .  S
O27         Cr42   2.022       .  S
O27          C28   1.269   1_545  A
C28          O29   1.252       .  A
C28         C670   1.424       .  S
O29        Cr715   1.952   1_554  S
O30         Cr43   2.001       .  S
O30         C703   1.264       .  A
C31         O702   1.264   1_554  A
C31         C658   1.432       .  S
O32        Cr713   2.033       .  S
O32          C40   1.269       .  A
O33        Cr713   1.974   1_545  S
O33          C34   1.260       .  A
C34         O707   1.270       .  A
C34         C655   1.443       .  S
O35         Cr42   2.019       .  S
O35         C706   1.270   1_554  A
O36        Cr714   1.947       .  S
O36          C37   1.249       .  A
C37          O38   1.263       .  A
C37         C659   1.414       .  S
O38         Cr43   2.006   1_545  S
O39         Cr43   1.958       .  S
O39          C40   1.255       .  A
C40         C654   1.437       .  S
Cr41        O704   2.033       .  S
Cr41        O705   1.974   1_565  S
Cr41         O44   1.774   1_565  S
Cr42        O708   1.947   1_554  S
Cr42         O44   1.762   1_554  S
Cr43        O701   1.952       .  S
Cr43        O716   1.767   1_565  S
O44        Cr715   1.767   1_545  S
O45         Cr63   2.027   1_565  S
O45          C53   1.267       .  A
O46         Cr63   1.979       .  S
O46          C47   1.261       .  A
C47          O48   1.268       .  A
C47         C646   1.443       .  S
O48         Cr64   2.014       .  S
O49         Cr64   1.954       .  S
O49          C50   1.252       .  A
C50          O51   1.265       .  A
C50         C650   1.423       .  S
O51         Cr65   2.015   1_545  S
O52         Cr65   1.963       .  S
O52          C53   1.255       .  A
C53         C653   1.438       .  S
O54         Cr63   1.974   1_565  S
O54          C62   1.259       .  A
O55         Cr63   2.029       .  S
O55          C56   1.268       .  A
C56          O57   1.255       .  A
C56         C651   1.442       .  S
O57         Cr64   1.967       .  S
O58         Cr64   2.014       .  S
O58          C59   1.266   1_545  A
C59          O60   1.252       .  A
C59         C668   1.424       .  S
O60         Cr65   1.956       .  S
O61         Cr65   2.007       .  S
O61          C62   1.266       .  A
C62         C647   1.433       .  S
Cr63         O66   1.775       .  S
Cr64         O66   1.765       .  S
Cr65         O66   1.768   1_565  S
O67         Cr85   1.973       .  S
O67          C75   1.259       .  A
O68         Cr85   1.994       .  S
O68          C69   1.259       .  A
C69          O70   1.261       .  A
C69         C639   1.432       .  S
O70         Cr86   1.985       .  S
O71         Cr86   2.007       .  S
O71          C72   1.263       .  A
C72          O73   1.260       .  A
C72         C644   1.435       .  S
O73         Cr87   1.977       .  S
O74         Cr87   2.013       .  S
O74          C75   1.265       .  A
C75         C641   1.435       .  S
O76         Cr85   1.994       .  S
O76          C84   1.259       .  A
O77         Cr85   1.973       .  S
O77          C78   1.259       .  A
C78          O79   1.265       .  A
C78         C648   1.435       .  S
O79         Cr86   2.012       .  S
O80         Cr86   1.977       .  S
O80          C81   1.260       .  A
C81          O82   1.264       .  A
C81         C671   1.435       .  S
O82         Cr87   2.008       .  S
O83         Cr87   1.985       .  S
O83          C84   1.260       .  A
C84         C657   1.432       .  S
Cr85         O88   1.776       .  S
Cr86         O88   1.780       .  S
Cr87         O88   1.780       .  S
O89        Cr107   2.005       .  S
O89          C97   1.263       .  A
O90        Cr107   1.980       .  S
O90          C91   1.260       .  A
C91          O92   1.264       .  A
C91         C632   1.439       .  S
O92        Cr108   2.009       .  S
O93        Cr108   1.997       .  S
O93          C94   1.263       .  A
C94          O95   1.265       .  A
C94         C635   1.456       .  S
O95        Cr109   2.018       .  S
O96        Cr109   1.987       .  S
O96          C97   1.262       .  A
C97         C634   1.440       .  S
O98        Cr107   1.985       .  S
O98         C106   1.260       .  A
O99        Cr107   2.003       .  S
O99         C100   1.262       .  A
C100        O101   1.262       .  A
C100        C645   1.443       .  S
O101       Cr108   1.992       .  S
O102       Cr108   2.010       .  S
O102        C103   1.265       .  A
C103        O104   1.262       .  A
C103        C638   1.443       .  S
O104       Cr109   1.986       .  S
O105       Cr109   2.016       .  S
O105        C106   1.264       .  A
C106        C656   1.445       .  S
Cr107       O110   1.783       .  S
Cr108       O110   1.784       .  S
Cr109       O110   1.783       .  S
O111       Cr129   1.977       .  S
O111        C119   1.256       .  A
O112       Cr129   2.024       .  S
O112        C113   1.270       .  A
C113        O114   1.257       .  A
C113        C629   1.443       .  S
O114       Cr130   1.969       .  S
O115       Cr130   2.018       .  S
O115        C116   1.270       .  A
C116        O117   1.251       .  A
C116        C628   1.412       .  S
O117       Cr131   1.936       .  S
O118       Cr131   1.989       .  S
O118        C119   1.257       .  A
C119        C625   1.424       .  S
O120       Cr129   2.033       .  S
O120        C128   1.273       .  A
O121       Cr129   1.964       .  S
O121        C122   1.256       .  A
C122        O123   1.265       .  A
C122        C643   1.433       .  S
O123       Cr130   2.008       .  S
O124       Cr130   1.981       .  S
O124        C125   1.255       .  A
C125        O126   1.256       .  A
C125        C622   1.424       .  S
O126       Cr131   1.987       .  S
O127       Cr131   1.940       .  S
O127        C128   1.252       .  A
C128        C623   1.423       .  S
Cr129       O132   1.766       .  S
Cr130       O132   1.768       .  S
Cr131       O132   1.767       .  S
O133       Cr151   1.976       .  S
O133        C141   1.260       .  A
O134       Cr151   2.035   1_455  S
O134        C135   1.269       .  A
C135        O136   1.253       .  A
C135        C613   1.442       .  S
O136       Cr152   1.960       .  S
O137       Cr152   2.022   1_655  S
O137        C138   1.269       .  A
C138        O139   1.252       .  A
C138        C619   1.424       .  S
O139       Cr825   1.952       .  S
O140       Cr153   2.000       .  S
O140        C813   1.264   1_554  A
C141        O812   1.263       .  A
C141        C615   1.431       .  S
O142       Cr823   2.033       .  S
O142        C150   1.269       .  A
O143       Cr823   1.974   1_455  S
O143        C144   1.260       .  A
C144        O817   1.270   1_554  A
C144        C618   1.443       .  S
O145       Cr152   2.019       .  S
O145        C816   1.270       .  A
O146       Cr824   1.947   1_554  S
O146        C147   1.249       .  A
C147        O148   1.263       .  A
C147        C627   1.414       .  S
O148       Cr153   2.006   1_455  S
O149       Cr153   1.958       .  S
O149        C150   1.255       .  A
C150        C611   1.437       .  S
Cr151       O814   2.033       .  S
Cr151       O815   1.974   1_655  S
Cr151       O154   1.774       .  S
Cr152       O818   1.947       .  S
Cr152       O154   1.762   1_455  S
Cr153       O811   1.952   1_554  S
Cr153       O826   1.767       .  S
O154       Cr825   1.767       .  S
O155       Cr173   2.028   1_655  S
O155        C163   1.267       .  A
O156       Cr173   1.979       .  S
O156        C157   1.261       .  A
C157        O158   1.268       .  A
C157        C608   1.443       .  S
O158       Cr174   2.014       .  S
O159       Cr174   1.954       .  S
O159        C160   1.252       .  A
C160        O161   1.265   1_455  A
C160        C626   1.423       .  S
O161       Cr175   2.014       .  S
O162       Cr175   1.963       .  S
O162        C163   1.255       .  A
C163        C612   1.438       .  S
O164       Cr173   1.973   1_655  S
O164        C172   1.259       .  A
O165       Cr173   2.029       .  S
O165        C166   1.268       .  A
C166        O167   1.255       .  A
C166        C614   1.442       .  S
O167       Cr174   1.967       .  S
O168       Cr174   2.014   1_655  S
O168        C169   1.266       .  A
C169        O170   1.252       .  A
C169        C609   1.424       .  S
O170       Cr175   1.957       .  S
O171       Cr175   2.007       .  S
O171        C172   1.266       .  A
C172        C605   1.433       .  S
Cr173       O176   1.775       .  S
Cr174       O176   1.765       .  S
Cr175       O176   1.768   1_655  S
O177       Cr195   1.977       .  S
O177        C185   1.256       .  A
O178       Cr195   2.024       .  S
O178        C179   1.269       .  A
C179        O180   1.257       .  A
C179        C637   1.443       .  S
O180       Cr196   1.969       .  S
O181       Cr196   2.018       .  S
O181        C182   1.270       .  A
C182        O183   1.251       .  A
C182        C660   1.412       .  S
O183       Cr197   1.936       .  S
O184       Cr197   1.989       .  S
O184        C185   1.257       .  A
C185        C649   1.423       .  S
O186       Cr195   2.033       .  S
O186        C194   1.273       .  A
O187       Cr195   1.964       .  S
O187        C188   1.256       .  A
C188        O189   1.265       .  A
C188        C604   1.432       .  S
O189       Cr196   2.008       .  S
O190       Cr196   1.981       .  S
O190        C191   1.255       .  A
C191        O192   1.256       .  A
C191        C601   1.424       .  S
O192       Cr197   1.987       .  S
O193       Cr197   1.940       .  S
O193        C194   1.252       .  A
C194        C599   1.422       .  S
Cr195       O198   1.766       .  S
Cr196       O198   1.768       .  S
Cr197       O198   1.767       .  S
O199       Cr217   1.977       .  S
O199        C207   1.260       .  A
O200       Cr217   2.035   1_565  S
O200        C201   1.269       .  A
C201        O202   1.253       .  A
C201        C592   1.442       .  S
O202       Cr218   1.960       .  S
O203       Cr218   2.023   1_545  S
O203        C204   1.269       .  A
C204        O205   1.252       .  A
C204        C600   1.425       .  S
O205       Cr219   1.952       .  S
O206       Cr219   2.000       .  S
O206        C207   1.264       .  A
C207        C598   1.432       .  S
O208       Cr217   2.033       .  S
O208        C216   1.269       .  A
O209       Cr217   1.975   1_565  S
O209        C210   1.260       .  A
C210        O211   1.270       .  A
C210        C596   1.444       .  S
O211       Cr218   2.019       .  S
O212       Cr218   1.947       .  S
O212        C213   1.249       .  A
C213        O214   1.263   1_565  A
C213        C666   1.414       .  S
O214       Cr219   2.006       .  S
O215       Cr219   1.958       .  S
O215        C216   1.255       .  A
C216        C594   1.437       .  S
Cr217       O220   1.774       .  S
Cr218       O220   1.762   1_565  S
Cr219       O220   1.767       .  S
O221       Cr911   2.028   1_554  S
O221        C229   1.267       .  A
O222       Cr911   1.980   1_564  S
O222        C223   1.261       .  A
C223        O896   1.268   1_554  A
C223        C587   1.443       .  S
O224       Cr240   2.015       .  S
O224        C895   1.268       .  A
O225       Cr912   1.954   1_554  S
O225        C226   1.252       .  A
C226        O227   1.266   1_565  A
C226        C663   1.423       .  S
O227       Cr241   2.015       .  S
O228       Cr241   1.963       .  S
O228        C229   1.255       .  A
C229        C593   1.438       .  S
O230       Cr239   1.974       .  S
O230        C238   1.259       .  A
O231       Cr239   2.029   1_565  S
O231        C232   1.268       .  A
C232        O233   1.255       .  A
C232        C591   1.442       .  S
O233       Cr240   1.967       .  S
O234       Cr240   2.015   1_545  S
O234        C235   1.266       .  A
C235        O236   1.252       .  A
C235        C602   1.425       .  S
O236       Cr913   1.957       .  S
O237       Cr241   2.007       .  S
O237        C910   1.266   1_554  A
C238        O909   1.266       .  A
C238        C589   1.434       .  S
Cr239       O893   2.028       .  S
Cr239       O894   1.980   1_545  S
Cr239       O242   1.775       .  S
Cr240       O897   1.954       .  S
Cr240       O242   1.765   1_565  S
Cr241       O908   1.957   1_554  S
Cr241       O914   1.768   1_554  S
O242       Cr913   1.768       .  S
O243       Cr261   1.973       .  S
O243        C251   1.259       .  A
O244       Cr261   1.994       .  S
O244        C245   1.259       .  A
C245        O246   1.261       .  A
C245        C597   1.432       .  S
O246       Cr262   1.985       .  S
O247       Cr262   2.007       .  S
O247        C248   1.263       .  A
C248        O249   1.259       .  A
C248        C603   1.434       .  S
O249       Cr263   1.977       .  S
O250       Cr263   2.013       .  S
O250        C251   1.265       .  A
C251        C590   1.435       .  S
O252       Cr261   1.994       .  S
O252        C260   1.259       .  A
O253       Cr261   1.973       .  S
O253        C254   1.259       .  A
C254        O255   1.265       .  A
C254        C606   1.434       .  S
O255       Cr262   2.012       .  S
O256       Cr262   1.977       .  S
O256        C257   1.260       .  A
C257        O258   1.264       .  A
C257        C585   1.435       .  S
O258       Cr263   2.007       .  S
O259       Cr263   1.984       .  S
O259        C260   1.260       .  A
C260        C616   1.432       .  S
Cr261       O264   1.776       .  S
Cr262       O264   1.780       .  S
Cr263       O264   1.780       .  S
O265       Cr283   1.978       .  S
O265        C273   1.256       .  A
O266       Cr283   2.023       .  S
O266        C267   1.269       .  A
C267        O268   1.257       .  A
C267        C583   1.442       .  S
O268       Cr284   1.969       .  S
O269       Cr284   2.019       .  S
O269        C270   1.270       .  A
C270        O271   1.251       .  A
C270        C581   1.412       .  S
O271       Cr285   1.936       .  S
O272       Cr285   1.989       .  S
O272        C273   1.257       .  A
C273        C579   1.424       .  S
O274       Cr283   2.032       .  S
O274        C282   1.273       .  A
O275       Cr283   1.964       .  S
O275        C276   1.256       .  A
C276        O277   1.265       .  A
C276        C586   1.433       .  S
O277       Cr284   2.008       .  S
O278       Cr284   1.980       .  S
O278        C279   1.255       .  A
C279        O280   1.256       .  A
C279        C610   1.424       .  S
O280       Cr285   1.987       .  S
O281       Cr285   1.940       .  S
O281        C282   1.252       .  A
C282        C620   1.422       .  S
Cr283       O286   1.766       .  S
Cr284       O286   1.768       .  S
Cr285       O286   1.767       .  S
O287       Cr305   1.977       .  S
O287        C295   1.260       .  A
O288       Cr305   2.035   1_655  S
O288        C289   1.269       .  A
C289        O290   1.253       .  A
C289        C574   1.442       .  S
O290       Cr306   1.960       .  S
O291       Cr306   2.023   1_455  S
O291        C292   1.269       .  A
C292        O293   1.252       .  A
C292        C624   1.425       .  S
O293       Cr307   1.952       .  S
O294       Cr307   2.000       .  S
O294        C295   1.263       .  A
C295        C640   1.432       .  S
O296       Cr305   2.034       .  S
O296        C304   1.270       .  A
O297       Cr305   1.975   1_655  S
O297        C298   1.260       .  A
C298        O299   1.270       .  A
C298        C578   1.444       .  S
O299       Cr306   2.019       .  S
O300       Cr306   1.947       .  S
O300        C301   1.249       .  A
C301        O302   1.263   1_655  A
C301        C582   1.414       .  S
O302       Cr307   2.006       .  S
O303       Cr307   1.959       .  S
O303        C304   1.255       .  A
C304        C575   1.437       .  S
Cr305       O308   1.774       .  S
Cr306       O308   1.763   1_655  S
Cr307       O308   1.767       .  S
O309       Cr999   2.028       .  S
O309        C317   1.267       .  A
O310       Cr999   1.980   1_655  S
O310        C311   1.261       .  A
C311        O984   1.268       .  A
C311        C572   1.443       .  S
O312       Cr328   2.014       .  S
O312        C983   1.268   1_554  A
O313      Cr1000   1.954       .  S
O313        C314   1.252       .  A
C314        O315   1.266   1_655  A
C314        C580   1.423       .  S
O315       Cr329   2.015       .  S
O316       Cr329   1.963       .  S
O316        C317   1.255       .  A
C317        C576   1.438       .  S
O318       Cr327   1.974       .  S
O318        C326   1.259       .  A
O319       Cr327   2.030   1_655  S
O319        C320   1.268       .  A
C320        O321   1.255       .  A
C320        C573   1.443       .  S
O321       Cr328   1.967       .  S
O322       Cr328   2.014   1_455  S
O322        C323   1.266       .  A
C323        O324   1.252       .  A
C323        C621   1.425       .  S
O324      Cr1001   1.957   1_554  S
O325       Cr329   2.007       .  S
O325        C998   1.266       .  A
C326        O997   1.266   1_554  A
C326        C642   1.434       .  S
Cr327       O981   2.028   1_554  S
Cr327       O982   1.980   1_454  S
Cr327       O330   1.775       .  S
Cr328       O985   1.954   1_554  S
Cr328       O330   1.765   1_655  S
Cr329       O996   1.957       .  S
Cr329      O1002   1.768       .  S
O330      Cr1001   1.768   1_554  S
O331       Cr349   1.974       .  S
O331        C339   1.254       .  A
O332       Cr349   2.031       .  S
O332        C333   1.271       .  A
C333        O334   1.257       .  A
C333        C569   1.455       .  S
O334       Cr350   1.976       .  S
O335       Cr350   2.032       .  S
O335        C336   1.273       .  A
C336        O337   1.252       .  A
C336        C567   1.427       .  S
O337       Cr351   1.943       .  S
O338       Cr351   1.996       .  S
O338        C339   1.259       .  A
C339        C565   1.428       .  S
O340       Cr349   2.033       .  S
O340        C348   1.274       .  A
O341       Cr349   1.975       .  S
O341        C342   1.256       .  A
C342        O343   1.271       .  A
C342        C636   1.454       .  S
O343       Cr350   2.030       .  S
O344       Cr350   1.975       .  S
O344        C345   1.254       .  A
C345        O346   1.259       .  A
C345        C563   1.428       .  S
O346       Cr351   1.996       .  S
O347       Cr351   1.943       .  S
O347        C348   1.252       .  A
C348        C561   1.427       .  S
Cr349       O352   1.769       .  S
Cr350       O352   1.769       .  S
Cr351       O352   1.774       .  S
O353       Cr371   1.972       .  S
O353        C361   1.258       .  A
O354       Cr371   2.040       .  S
O354        C355   1.271       .  A
C355        O356   1.255       .  A
C355        C558   1.446       .  S
O356       Cr372   1.962       .  S
O357       Cr372   2.019       .  S
O357        C358   1.267       .  A
C358        O359   1.253       .  A
C358        C553   1.428       .  S
O359       Cr373   1.958       .  S
O360       Cr373   2.015       .  S
O360        C361   1.268       .  A
C361        C556   1.439       .  S
O362       Cr371   2.040       .  S
O362        C370   1.271       .  A
O363       Cr371   1.972       .  S
O363        C364   1.258       .  A
C364        O365   1.267       .  A
C364        C631   1.438       .  S
O365       Cr372   2.015       .  S
O366       Cr372   1.958       .  S
O366        C367   1.253       .  A
C367        O368   1.267       .  A
C367        C562   1.428       .  S
O368       Cr373   2.019       .  S
O369       Cr373   1.962       .  S
O369        C370   1.255       .  A
C370        C560   1.446       .  S
Cr371       O374   1.777       .  S
Cr372       O374   1.768       .  S
Cr373       O374   1.768       .  S
O375      Cr1065   2.035       .  S
O375        C383   1.269       .  A
O376      Cr1065   1.983       .  S
O376        C377   1.261       .  A
C377       O1050   1.265       .  A
C377        C633   1.439       .  S
O378       Cr394   2.007       .  S
O378       C1049   1.265   1_554  A
O379      Cr1066   1.966       .  S
O379        C380   1.256       .  A
C380        O381   1.264       .  A
C380        C564   1.428       .  S
O381       Cr395   2.009       .  S
O382       Cr395   1.969       .  S
O382        C383   1.256       .  A
C383        C559   1.447       .  S
O384       Cr393   1.983       .  S
O384        C392   1.261       .  A
O385       Cr393   2.035       .  S
O385        C386   1.269       .  A
C386        O387   1.256       .  A
C386        C557   1.447       .  S
O387       Cr394   1.969       .  S
O388       Cr394   2.009       .  S
O388        C389   1.264       .  A
C389        O390   1.256       .  A
C389        C549   1.428       .  S
O390      Cr1067   1.966   1_554  S
O391       Cr395   2.007       .  S
O391       C1064   1.265       .  A
C392       O1063   1.265   1_554  A
C392        C551   1.439       .  S
Cr393      O1047   2.035   1_554  S
Cr393      O1048   1.983   1_554  S
Cr393      O1068   1.777       .  S
Cr394      O1051   1.966   1_554  S
Cr394      O1068   1.770       .  S
Cr395      O1062   1.966       .  S
Cr395       O396   1.770       .  S
O396      Cr1065   1.777       .  S
O396      Cr1066   1.770       .  S
O397       Cr415   1.974       .  S
O397        C405   1.254       .  A
O398       Cr415   2.031       .  S
O398        C399   1.271       .  A
C399        O400   1.257       .  A
C399        C547   1.455       .  S
O400       Cr416   1.976       .  S
O401       Cr416   2.033       .  S
O401        C402   1.273       .  A
C402        O403   1.252       .  A
C402        C543   1.427       .  S
O403       Cr417   1.943       .  S
O404       Cr417   1.996       .  S
O404        C405   1.259       .  A
C405        C542   1.428       .  S
O406       Cr415   2.033       .  S
O406        C414   1.274       .  A
O407       Cr415   1.975       .  S
O407        C408   1.257       .  A
C408        O409   1.271       .  A
C408        C546   1.455       .  S
O409       Cr416   2.030       .  S
O410       Cr416   1.975       .  S
O410        C411   1.254       .  A
C411        O412   1.259       .  A
C411        C550   1.428       .  S
O412       Cr417   1.996       .  S
O413       Cr417   1.943       .  S
O413        C414   1.252       .  A
C414        C554   1.427       .  S
Cr415       O418   1.769       .  S
Cr416       O418   1.769       .  S
Cr417       O418   1.774       .  S
O419       Cr437   1.972   1_554  S
O419        C427   1.258       .  A
O420       Cr437   2.041   1_554  S
O420        C421   1.271       .  A
C421        O422   1.255       .  A
C421        C536   1.446       .  S
O422       Cr438   1.962       .  S
O423       Cr438   2.019       .  S
O423        C424   1.267       .  A
C424        O425   1.253       .  A
C424        C544   1.428       .  S
O425      Cr1111   1.958   1_554  S
O426       Cr439   2.014       .  S
O426       C1099   1.267       .  A
C427       O1098   1.267   1_554  A
C427        C537   1.438       .  S
O428      Cr1109   2.041       .  S
O428        C436   1.271       .  A
O429      Cr1109   1.972       .  S
O429        C430   1.258       .  A
C430       O1103   1.267       .  A
C430        C540   1.438       .  S
O431       Cr438   2.014       .  S
O431       C1102   1.267   1_554  A
O432      Cr1110   1.958       .  S
O432        C433   1.253       .  A
C433        O434   1.267       .  A
C433        C568   1.428       .  S
O434       Cr439   2.019       .  S
O435       Cr439   1.962       .  S
O435        C436   1.255       .  A
C436        C533   1.446       .  S
Cr437      O1100   2.041       .  S
Cr437      O1101   1.972       .  S
Cr437       O440   1.777   1_556  S
Cr438      O1104   1.958   1_554  S
Cr438       O440   1.768       .  S
Cr439      O1097   1.958       .  S
Cr439      O1112   1.768       .  S
O440      Cr1111   1.768   1_554  S
O441       Cr459   2.035       .  S
O441        C449   1.269       .  A
O442       Cr459   1.982       .  S
O442        C443   1.261       .  A
C443        O444   1.265       .  A
C443        C531   1.439       .  S
O444       Cr460   2.007       .  S
O445       Cr460   1.966       .  S
O445        C446   1.256       .  A
C446        O447   1.264       .  A
C446        C566   1.427       .  S
O447       Cr461   2.009       .  S
O448       Cr461   1.969       .  S
O448        C449   1.256       .  A
C449        C534   1.447       .  S
O450       Cr459   1.982       .  S
O450        C458   1.261       .  A
O451       Cr459   2.035       .  S
O451        C452   1.269       .  A
C452        O453   1.256       .  A
C452        C535   1.447       .  S
O453       Cr460   1.969       .  S
O454       Cr460   2.009       .  S
O454        C455   1.264       .  A
C455        O456   1.256       .  A
C455        C541   1.427       .  S
O456       Cr461   1.966       .  S
O457       Cr461   2.007       .  S
O457        C458   1.265       .  A
C458        C529   1.439       .  S
Cr459       O462   1.777       .  S
Cr460       O462   1.770       .  S
Cr461       O462   1.770       .  S
O463       Cr481   2.005       .  S
O463        C471   1.263       .  A
O464       Cr481   1.980       .  S
O464        C465   1.260       .  A
C465        O466   1.264       .  A
C465        C555   1.440       .  S
O466       Cr482   2.009       .  S
O467       Cr482   1.998       .  S
O467        C468   1.263       .  A
C468        O469   1.264       .  A
C468        C545   1.456       .  S
O469       Cr483   2.018       .  S
O470       Cr483   1.988       .  S
O470        C471   1.262       .  A
C471        C552   1.440       .  S
O472       Cr481   1.985       .  S
O472        C480   1.260       .  A
O473       Cr481   2.003       .  S
O473        C474   1.261       .  A
C474        O475   1.262       .  A
C474        C607   1.444       .  S
O475       Cr482   1.992       .  S
O476       Cr482   2.011       .  S
O476        C477   1.265       .  A
C477        O478   1.262       .  A
C477        C630   1.444       .  S
O478       Cr483   1.987       .  S
O479       Cr483   2.015       .  S
O479        C480   1.264       .  A
C480        C617   1.445       .  S
Cr481       O484   1.784       .  S
Cr482       O484   1.784       .  S
Cr483       O484   1.783       .  S
O485       Cr503   2.005       .  S
O485        C493   1.263       .  A
O486       Cr503   1.980       .  S
O486        C487   1.260       .  A
C487        O488   1.264       .  A
C487        C538   1.439       .  S
O488       Cr504   2.009       .  S
O489       Cr504   1.998       .  S
O489        C490   1.263       .  A
C490        O491   1.265       .  A
C490        C548   1.457       .  S
O491       Cr505   2.019       .  S
O492       Cr505   1.987       .  S
O492        C493   1.262       .  A
C493        C530   1.440       .  S
O494       Cr503   1.985       .  S
O494        C502   1.260       .  A
O495       Cr503   2.003       .  S
O495        C496   1.262       .  A
C496        O497   1.262       .  A
C496        C588   1.444       .  S
O497       Cr504   1.993       .  S
O498       Cr504   2.010       .  S
O498        C499   1.264       .  A
C499        O500   1.262       .  A
C499        C662   1.443       .  S
O500       Cr505   1.986       .  S
O501       Cr505   2.017       .  S
O501        C502   1.264       .  A
C502        C595   1.446       .  S
Cr503       O506   1.784       .  S
Cr504       O506   1.784       .  S
Cr505       O506   1.783       .  S
O507       Cr525   2.005       .  S
O507        C515   1.263       .  A
O508       Cr525   1.980       .  S
O508        C509   1.260       .  A
C509        O510   1.264       .  A
C509        C539   1.439       .  S
O510       Cr526   2.009       .  S
O511       Cr526   1.998       .  S
O511        C512   1.263       .  A
C512        O513   1.265       .  A
C512        C570   1.457       .  S
O513       Cr527   2.019       .  S
O514       Cr527   1.987       .  S
O514        C515   1.262       .  A
C515        C532   1.440       .  S
O516       Cr525   1.984       .  S
O516        C524   1.260       .  A
O517       Cr525   2.003       .  S
O517        C518   1.262       .  A
C518        O519   1.262       .  A
C518        C571   1.444       .  S
O519       Cr526   1.993       .  S
O520       Cr526   2.010       .  S
O520        C521   1.264       .  A
C521        O522   1.262       .  A
C521        C584   1.443       .  S
O522       Cr527   1.986       .  S
O523       Cr527   2.017       .  S
O523        C524   1.264       .  A
C524        C577   1.445       .  S
Cr525       O528   1.783       .  S
Cr526       O528   1.784       .  S
Cr527       O528   1.783       .  S
C529        C530   1.209       .  T
C531        C532   1.209       .  T
C533        C534   1.213       .  T
C535        C536   1.213       .  T
C537        C538   1.208       .  T
C539        C540   1.208       .  T
C541        C542   1.202       .  T
C543        C544   1.202       .  T
C545        C546   1.218       .  T
C547        C548   1.219       .  T
C549        C550   1.202       .  T
C551        C552   1.209       .  T
C553        C554   1.202       .  T
C555        C556   1.208       .  T
C557        C558   1.213       .  T
C559        C560   1.213       .  T
C561        C562   1.202       .  T
C563        C564   1.202       .  T
C565        C566   1.202       .  T
C567        C568   1.202       .  T
C569        C570   1.219       .  T
C571        C572   1.211       .  T
C573        C574   1.210       .  T
C575        C576   1.208       .  T
C577        C578   1.212       .  T
C579        C580   1.200       .  T
C581        C582   1.194       .  T
C583        C584   1.211       .  T
C585        C586   1.206       .  T
C587        C588   1.211       .  T
C589        C590   1.206       .  T
C591        C592   1.210       .  T
C593        C594   1.208       .  T
C595        C596   1.212       .  T
C597        C598   1.205       .  T
C599        C600   1.200       .  T
C601        C602   1.200       .  T
C603        C604   1.205       .  T
C605        C606   1.205       .  T
C607        C608   1.211       .  T
C609        C610   1.200       .  T
C611        C612   1.208       .  T
C613        C614   1.210       .  T
C615        C616   1.204       .  T
C617        C618   1.211       .  T
C619        C620   1.200       .  T
C621        C622   1.200       .  T
C623        C624   1.200       .  T
C625        C626   1.199       .  T
C627        C628   1.194       .  T
C629        C630   1.211       .  T
C631        C632   1.208       .  T
C633        C634   1.209       .  T
C635        C636   1.218       .  T
C637        C638   1.211       .  T
C639        C640   1.205       .  T
C641        C642   1.206       .  T
C643        C644   1.205       .  T
C645        C646   1.211       .  T
C647        C648   1.206       .  T
C649        C650   1.199       .  T
C651        C652   1.210       .  T
C653        C654   1.208       .  T
C655        C656   1.211       .  T
C657        C658   1.204       .  T
C659        C660   1.193       .  T
C661        C662   1.211       .  T
C663        C664   1.199       .  T
C665        C666   1.193       .  T
C667        C668   1.200       .  T
C669        C670   1.200       .  T
C671        C672   1.205       .  T
O673       Cr691   1.978       .  S
O673        C681   1.256       .  A
O674       Cr691   2.023       .  S
O674        C675   1.269       .  A
C675        O676   1.257       .  A
C675       C1333   1.442       .  S
O676       Cr692   1.968       .  S
O677       Cr692   2.019       .  S
O677        C678   1.270       .  A
C678        O679   1.251       .  A
C678       C1337   1.412       .  S
O679       Cr693   1.936       .  S
O680       Cr693   1.988       .  S
O680        C681   1.256       .  A
C681       C1336   1.424       .  S
O682       Cr691   2.032       .  S
O682        C690   1.273       .  A
O683       Cr691   1.964       .  S
O683        C684   1.256       .  A
C684        O685   1.265       .  A
C684       C1344   1.433       .  S
O685       Cr692   2.008       .  S
O686       Cr692   1.980       .  S
O686        C687   1.255       .  A
C687        O688   1.256       .  A
C687       C1339   1.424       .  S
O688       Cr693   1.987       .  S
O689       Cr693   1.940       .  S
O689        C690   1.252       .  A
C690       C1341   1.422       .  S
Cr691       O694   1.766       .  S
Cr692       O694   1.768       .  S
Cr693       O694   1.767       .  S
O695       Cr713   1.977       .  S
O695        C703   1.260       .  A
O696       Cr713   2.035   1_545  S
O696        C697   1.269       .  A
C697        O698   1.253       .  A
C697       C1324   1.441       .  S
O698       Cr714   1.960       .  S
O699       Cr714   2.022       .  S
O699        C700   1.269   1_545  A
C700        O701   1.252       .  A
C700       C1342   1.424       .  S
O702       Cr715   2.001       .  S
C703       C1330   1.432       .  S
O704        C712   1.269       .  A
O705        C706   1.260       .  A
C706       C1327   1.443       .  S
O707       Cr714   2.019       .  S
O708        C709   1.249       .  A
C709        O710   1.263       .  A
C709       C1331   1.414       .  S
O710       Cr715   2.006   1_545  S
O711       Cr715   1.958       .  S
O711        C712   1.255       .  A
C712       C1326   1.437       .  S
Cr713       O716   1.774   1_565  S
Cr714       O716   1.762       .  S
O717       Cr735   2.027   1_565  S
O717        C725   1.267       .  A
O718       Cr735   1.979       .  S
O718        C719   1.261       .  A
C719        O720   1.268       .  A
C719       C1318   1.442       .  S
O720       Cr736   2.014       .  S
O721       Cr736   1.954       .  S
O721        C722   1.252       .  A
C722        O723   1.266       .  A
C722       C1322   1.423       .  S
O723       Cr737   2.015   1_545  S
O724       Cr737   1.963       .  S
O724        C725   1.255       .  A
C725       C1325   1.438       .  S
O726       Cr735   1.973   1_565  S
O726        C734   1.259       .  A
O727       Cr735   2.029       .  S
O727        C728   1.268       .  A
C728        O729   1.255       .  A
C728       C1323   1.442       .  S
O729       Cr736   1.967       .  S
O730       Cr736   2.014       .  S
O730        C731   1.266   1_545  A
C731        O732   1.252       .  A
C731       C1340   1.424       .  S
O732       Cr737   1.956       .  S
O733       Cr737   2.007       .  S
O733        C734   1.266       .  A
C734       C1319   1.433       .  S
Cr735       O738   1.775       .  S
Cr736       O738   1.765       .  S
Cr737       O738   1.768   1_565  S
O739       Cr757   1.973       .  S
O739        C747   1.259       .  A
O740       Cr757   1.994       .  S
O740        C741   1.259       .  A
C741        O742   1.261       .  A
C741       C1311   1.432       .  S
O742       Cr758   1.985       .  S
O743       Cr758   2.007       .  S
O743        C744   1.263       .  A
C744        O745   1.259       .  A
C744       C1316   1.435       .  S
O745       Cr759   1.977       .  S
O746       Cr759   2.013       .  S
O746        C747   1.265       .  A
C747       C1313   1.435       .  S
O748       Cr757   1.994       .  S
O748        C756   1.259       .  A
O749       Cr757   1.973       .  S
O749        C750   1.259       .  A
C750        O751   1.265       .  A
C750       C1320   1.435       .  S
O751       Cr758   2.012       .  S
O752       Cr758   1.977       .  S
O752        C753   1.260       .  A
C753        O754   1.264       .  A
C753       C1343   1.435       .  S
O754       Cr759   2.007       .  S
O755       Cr759   1.985       .  S
O755        C756   1.260       .  A
C756       C1329   1.432       .  S
Cr757       O760   1.776       .  S
Cr758       O760   1.780       .  S
Cr759       O760   1.780       .  S
O761       Cr779   2.005       .  S
O761        C769   1.263       .  A
O762       Cr779   1.980       .  S
O762        C763   1.260       .  A
C763        O764   1.264       .  A
C763       C1304   1.439       .  S
O764       Cr780   2.009       .  S
O765       Cr780   1.997       .  S
O765        C766   1.263       .  A
C766        O767   1.265       .  A
C766       C1307   1.456       .  S
O767       Cr781   2.018       .  S
O768       Cr781   1.987       .  S
O768        C769   1.262       .  A
C769       C1306   1.440       .  S
O770       Cr779   1.984       .  S
O770        C778   1.260       .  A
O771       Cr779   2.003       .  S
O771        C772   1.262       .  A
C772        O773   1.262       .  A
C772       C1317   1.443       .  S
O773       Cr780   1.992       .  S
O774       Cr780   2.011       .  S
O774        C775   1.265       .  A
C775        O776   1.262       .  A
C775       C1310   1.443       .  S
O776       Cr781   1.986       .  S
O777       Cr781   2.016       .  S
O777        C778   1.264       .  A
C778       C1328   1.445       .  S
Cr779       O782   1.783       .  S
Cr780       O782   1.784       .  S
Cr781       O782   1.783       .  S
O783       Cr801   1.977       .  S
O783        C791   1.256       .  A
O784       Cr801   2.024       .  S
O784        C785   1.269       .  A
C785        O786   1.257       .  A
C785       C1301   1.443       .  S
O786       Cr802   1.969       .  S
O787       Cr802   2.019       .  S
O787        C788   1.270       .  A
C788        O789   1.251       .  A
C788       C1300   1.412       .  S
O789       Cr803   1.936       .  S
O790       Cr803   1.989       .  S
O790        C791   1.257       .  A
C791       C1297   1.424       .  S
O792       Cr801   2.033       .  S
O792        C800   1.273       .  A
O793       Cr801   1.964       .  S
O793        C794   1.256       .  A
C794        O795   1.265       .  A
C794       C1315   1.433       .  S
O795       Cr802   2.008       .  S
O796       Cr802   1.981       .  S
O796        C797   1.255       .  A
C797        O798   1.256       .  A
C797       C1294   1.424       .  S
O798       Cr803   1.987       .  S
O799       Cr803   1.940       .  S
O799        C800   1.252       .  A
C800       C1295   1.422       .  S
Cr801       O804   1.766       .  S
Cr802       O804   1.768       .  S
Cr803       O804   1.767       .  S
O805       Cr823   1.976   1_556  S
O805        C813   1.260       .  A
O806       Cr823   2.035   1_456  S
O806        C807   1.269       .  A
C807        O808   1.253       .  A
C807       C1285   1.442       .  S
O808       Cr824   1.960       .  S
O809       Cr824   2.022   1_655  S
O809        C810   1.269       .  A
C810        O811   1.252       .  A
C810       C1291   1.424       .  S
O812       Cr825   2.000       .  S
C813       C1287   1.431       .  S
O814        C822   1.269       .  A
O815        C816   1.260       .  A
C816       C1290   1.443       .  S
O817       Cr824   2.019       .  S
O818        C819   1.249       .  A
C819        O820   1.263       .  A
C819       C1299   1.414       .  S
O820       Cr825   2.006   1_455  S
O821       Cr825   1.958       .  S
O821        C822   1.255       .  A
C822       C1283   1.437       .  S
Cr823       O826   1.774       .  S
Cr824       O826   1.762   1_456  S
O827       Cr845   2.027   1_655  S
O827        C835   1.267       .  A
O828       Cr845   1.979       .  S
O828        C829   1.261       .  A
C829        O830   1.268       .  A
C829       C1280   1.442       .  S
O830       Cr846   2.014       .  S
O831       Cr846   1.954       .  S
O831        C832   1.252       .  A
C832        O833   1.265   1_455  A
C832       C1298   1.423       .  S
O833       Cr847   2.014       .  S
O834       Cr847   1.963       .  S
O834        C835   1.255       .  A
C835       C1284   1.438       .  S
O836       Cr845   1.973   1_655  S
O836        C844   1.259       .  A
O837       Cr845   2.029       .  S
O837        C838   1.268       .  A
C838        O839   1.255       .  A
C838       C1286   1.442       .  S
O839       Cr846   1.967       .  S
O840       Cr846   2.014   1_655  S
O840        C841   1.266       .  A
C841        O842   1.252       .  A
C841       C1281   1.424       .  S
O842       Cr847   1.957       .  S
O843       Cr847   2.007       .  S
O843        C844   1.266       .  A
C844       C1277   1.433       .  S
Cr845       O848   1.775       .  S
Cr846       O848   1.765       .  S
Cr847       O848   1.768   1_655  S
O849       Cr867   1.978       .  S
O849        C857   1.256       .  A
O850       Cr867   2.023       .  S
O850        C851   1.269       .  A
C851        O852   1.257       .  A
C851       C1309   1.442       .  S
O852       Cr868   1.969       .  S
O853       Cr868   2.019       .  S
O853        C854   1.270       .  A
C854        O855   1.251       .  A
C854       C1332   1.412       .  S
O855       Cr869   1.936       .  S
O856       Cr869   1.989       .  S
O856        C857   1.257       .  A
C857       C1321   1.424       .  S
O858       Cr867   2.033       .  S
O858        C866   1.273       .  A
O859       Cr867   1.964       .  S
O859        C860   1.256       .  A
C860        O861   1.265       .  A
C860       C1276   1.432       .  S
O861       Cr868   2.008       .  S
O862       Cr868   1.981       .  S
O862        C863   1.255       .  A
C863        O864   1.256       .  A
C863       C1273   1.424       .  S
O864       Cr869   1.987       .  S
O865       Cr869   1.940       .  S
O865        C866   1.252       .  A
C866       C1271   1.422       .  S
Cr867       O870   1.766       .  S
Cr868       O870   1.768       .  S
Cr869       O870   1.767       .  S
O871       Cr889   1.977       .  S
O871        C879   1.260       .  A
O872       Cr889   2.035   1_565  S
O872        C873   1.269       .  A
C873        O874   1.253       .  A
C873       C1264   1.441       .  S
O874       Cr890   1.960       .  S
O875       Cr890   2.023   1_545  S
O875        C876   1.269       .  A
C876        O877   1.252       .  A
C876       C1272   1.425       .  S
O877       Cr891   1.952       .  S
O878       Cr891   2.000       .  S
O878        C879   1.264       .  A
C879       C1270   1.432       .  S
O880       Cr889   2.033       .  S
O880        C888   1.269       .  A
O881       Cr889   1.975   1_565  S
O881        C882   1.260       .  A
C882        O883   1.270       .  A
C882       C1268   1.444       .  S
O883       Cr890   2.019       .  S
O884       Cr890   1.947       .  S
O884        C885   1.249       .  A
C885        O886   1.263   1_565  A
C885       C1338   1.414       .  S
O886       Cr891   2.006       .  S
O887       Cr891   1.959       .  S
O887        C888   1.255       .  A
C888       C1266   1.437       .  S
Cr889       O892   1.774       .  S
Cr890       O892   1.762   1_565  S
Cr891       O892   1.767       .  S
O893        C901   1.267       .  A
O894        C895   1.261       .  A
C895       C1259   1.443       .  S
O896       Cr912   2.015       .  S
O897        C898   1.252       .  A
C898        O899   1.266   1_565  A
C898       C1335   1.423       .  S
O899       Cr913   2.015       .  S
O900       Cr913   1.963       .  S
O900        C901   1.255       .  A
C901       C1265   1.438       .  S
O902       Cr911   1.974       .  S
O902        C910   1.259       .  A
O903       Cr911   2.029   1_565  S
O903        C904   1.268       .  A
C904        O905   1.255       .  A
C904       C1263   1.442       .  S
O905       Cr912   1.967       .  S
O906       Cr912   2.015   1_545  S
O906        C907   1.266       .  A
C907        O908   1.252       .  A
C907       C1274   1.425       .  S
O909       Cr913   2.007       .  S
C910       C1261   1.434       .  S
Cr911       O914   1.775       .  S
Cr912       O914   1.765   1_565  S
O915       Cr933   1.973       .  S
O915        C923   1.259       .  A
O916       Cr933   1.994       .  S
O916        C917   1.259       .  A
C917        O918   1.261       .  A
C917       C1269   1.432       .  S
O918       Cr934   1.985       .  S
O919       Cr934   2.007       .  S
O919        C920   1.263       .  A
C920        O921   1.259       .  A
C920       C1275   1.434       .  S
O921       Cr935   1.977       .  S
O922       Cr935   2.013       .  S
O922        C923   1.265       .  A
C923       C1262   1.435       .  S
O924       Cr933   1.994       .  S
O924        C932   1.259       .  A
O925       Cr933   1.973       .  S
O925        C926   1.259       .  A
C926        O927   1.265       .  A
C926       C1278   1.434       .  S
O927       Cr934   2.012       .  S
O928       Cr934   1.977       .  S
O928        C929   1.260       .  A
C929        O930   1.264       .  A
C929       C1257   1.435       .  S
O930       Cr935   2.007       .  S
O931       Cr935   1.985       .  S
O931        C932   1.260       .  A
C932       C1288   1.432       .  S
Cr933       O936   1.776       .  S
Cr934       O936   1.780       .  S
Cr935       O936   1.780       .  S
O937       Cr955   1.978       .  S
O937        C945   1.256       .  A
O938       Cr955   2.023       .  S
O938        C939   1.269       .  A
C939        O940   1.257       .  A
C939       C1255   1.442       .  S
O940       Cr956   1.969       .  S
O941       Cr956   2.019       .  S
O941        C942   1.270       .  A
C942        O943   1.251       .  A
C942       C1253   1.412       .  S
O943       Cr957   1.936       .  S
O944       Cr957   1.989       .  S
O944        C945   1.257       .  A
C945       C1251   1.424       .  S
O946       Cr955   2.032       .  S
O946        C954   1.273       .  A
O947       Cr955   1.964       .  S
O947        C948   1.256       .  A
C948        O949   1.265       .  A
C948       C1258   1.433       .  S
O949       Cr956   2.008       .  S
O950       Cr956   1.980       .  S
O950        C951   1.255       .  A
C951        O952   1.256       .  A
C951       C1282   1.424       .  S
O952       Cr957   1.987       .  S
O953       Cr957   1.940       .  S
O953        C954   1.252       .  A
C954       C1292   1.422       .  S
Cr955       O958   1.766       .  S
Cr956       O958   1.768       .  S
Cr957       O958   1.767       .  S
O959       Cr977   1.977       .  S
O959        C967   1.260       .  A
O960       Cr977   2.035   1_655  S
O960        C961   1.269       .  A
C961        O962   1.253       .  A
C961       C1246   1.442       .  S
O962       Cr978   1.960       .  S
O963       Cr978   2.022   1_455  S
O963        C964   1.269       .  A
C964        O965   1.252       .  A
C964       C1296   1.425       .  S
O965       Cr979   1.952       .  S
O966       Cr979   2.000       .  S
O966        C967   1.264       .  A
C967       C1312   1.432       .  S
O968       Cr977   2.033       .  S
O968        C976   1.270       .  A
O969       Cr977   1.975   1_655  S
O969        C970   1.260       .  A
C970        O971   1.270       .  A
C970       C1250   1.444       .  S
O971       Cr978   2.019       .  S
O972       Cr978   1.947       .  S
O972        C973   1.249       .  A
C973        O974   1.263   1_655  A
C973       C1254   1.414       .  S
O974       Cr979   2.006       .  S
O975       Cr979   1.959       .  S
O975        C976   1.255       .  A
C976       C1247   1.437       .  S
Cr977       O980   1.774       .  S
Cr978       O980   1.763   1_655  S
Cr979       O980   1.767       .  S
O981        C989   1.267       .  A
O982        C983   1.261       .  A
C983       C1244   1.443       .  S
O984      Cr1000   2.014       .  S
O985        C986   1.252       .  A
C986        O987   1.266   1_655  A
C986       C1252   1.423       .  S
O987      Cr1001   2.015       .  S
O988      Cr1001   1.963       .  S
O988        C989   1.255       .  A
C989       C1248   1.438       .  S
O990       Cr999   1.974       .  S
O990        C998   1.259       .  A
O991       Cr999   2.030   1_655  S
O991        C992   1.268       .  A
C992        O993   1.255       .  A
C992       C1245   1.443       .  S
O993      Cr1000   1.967       .  S
O994      Cr1000   2.014   1_455  S
O994        C995   1.266       .  A
C995        O996   1.252       .  A
C995       C1293   1.425       .  S
O997      Cr1001   2.007       .  S
C998       C1314   1.434       .  S
Cr999      O1002   1.775       .  S
Cr1000     O1002   1.765   1_655  S
O1003     Cr1021   1.974       .  S
O1003      C1011   1.254       .  A
O1004     Cr1021   2.031       .  S
O1004      C1005   1.271       .  A
C1005      O1006   1.257       .  A
C1005      C1241   1.455       .  S
O1006     Cr1022   1.976       .  S
O1007     Cr1022   2.032       .  S
O1007      C1008   1.273       .  A
C1008      O1009   1.252       .  A
C1008      C1239   1.427       .  S
O1009     Cr1023   1.943       .  S
O1010     Cr1023   1.995       .  S
O1010      C1011   1.259       .  A
C1011      C1237   1.428       .  S
O1012     Cr1021   2.033       .  S
O1012      C1020   1.274       .  A
O1013     Cr1021   1.975       .  S
O1013      C1014   1.256       .  A
C1014      O1015   1.271       .  A
C1014      C1308   1.454       .  S
O1015     Cr1022   2.030       .  S
O1016     Cr1022   1.975       .  S
O1016      C1017   1.254       .  A
C1017      O1018   1.259       .  A
C1017      C1235   1.428       .  S
O1018     Cr1023   1.996       .  S
O1019     Cr1023   1.943       .  S
O1019      C1020   1.252       .  A
C1020      C1233   1.427       .  S
Cr1021     O1024   1.769       .  S
Cr1022     O1024   1.769       .  S
Cr1023     O1024   1.774       .  S
O1025     Cr1043   1.972       .  S
O1025      C1033   1.258       .  A
O1026     Cr1043   2.040       .  S
O1026      C1027   1.271       .  A
C1027      O1028   1.255       .  A
C1027      C1230   1.446       .  S
O1028     Cr1044   1.962       .  S
O1029     Cr1044   2.019       .  S
O1029      C1030   1.267       .  A
C1030      O1031   1.253       .  A
C1030      C1225   1.428       .  S
O1031     Cr1045   1.958       .  S
O1032     Cr1045   2.015       .  S
O1032      C1033   1.267       .  A
C1033      C1228   1.438       .  S
O1034     Cr1043   2.041       .  S
O1034      C1042   1.271       .  A
O1035     Cr1043   1.972       .  S
O1035      C1036   1.258       .  A
C1036      O1037   1.267       .  A
C1036      C1303   1.438       .  S
O1037     Cr1044   2.015       .  S
O1038     Cr1044   1.958       .  S
O1038      C1039   1.253       .  A
C1039      O1040   1.267       .  A
C1039      C1234   1.428       .  S
O1040     Cr1045   2.019       .  S
O1041     Cr1045   1.962       .  S
O1041      C1042   1.255       .  A
C1042      C1232   1.446       .  S
Cr1043     O1046   1.777       .  S
Cr1044     O1046   1.768       .  S
Cr1045     O1046   1.768       .  S
O1047      C1055   1.269       .  A
O1048      C1049   1.261       .  A
C1049      C1305   1.439       .  S
O1050     Cr1066   2.007       .  S
O1051      C1052   1.256       .  A
C1052      O1053   1.264       .  A
C1052      C1236   1.428       .  S
O1053     Cr1067   2.009       .  S
O1054     Cr1067   1.969       .  S
O1054      C1055   1.256       .  A
C1055      C1231   1.447       .  S
O1056     Cr1065   1.983       .  S
O1056      C1064   1.261       .  A
O1057     Cr1065   2.035       .  S
O1057      C1058   1.269       .  A
C1058      O1059   1.256       .  A
C1058      C1229   1.447       .  S
O1059     Cr1066   1.969       .  S
O1060     Cr1066   2.009       .  S
O1060      C1061   1.264       .  A
C1061      O1062   1.256       .  A
C1061      C1221   1.428       .  S
O1063     Cr1067   2.007       .  S
C1064      C1223   1.439       .  S
Cr1067     O1068   1.770   1_556  S
O1069     Cr1087   1.974       .  S
O1069      C1077   1.254       .  A
O1070     Cr1087   2.031       .  S
O1070      C1071   1.271       .  A
C1071      O1072   1.257       .  A
C1071      C1219   1.455       .  S
O1072     Cr1088   1.976       .  S
O1073     Cr1088   2.033       .  S
O1073      C1074   1.273       .  A
C1074      O1075   1.252       .  A
C1074      C1215   1.427       .  S
O1075     Cr1089   1.943       .  S
O1076     Cr1089   1.996       .  S
O1076      C1077   1.259       .  A
C1077      C1214   1.428       .  S
O1078     Cr1087   2.033       .  S
O1078      C1086   1.274       .  A
O1079     Cr1087   1.975       .  S
O1079      C1080   1.257       .  A
C1080      O1081   1.271       .  A
C1080      C1218   1.454       .  S
O1081     Cr1088   2.030       .  S
O1082     Cr1088   1.975       .  S
O1082      C1083   1.254       .  A
C1083      O1084   1.259       .  A
C1083      C1222   1.428       .  S
O1084     Cr1089   1.996       .  S
O1085     Cr1089   1.943       .  S
O1085      C1086   1.252       .  A
C1086      C1226   1.427       .  S
Cr1087     O1090   1.769       .  S
Cr1088     O1090   1.769       .  S
Cr1089     O1090   1.774       .  S
O1091     Cr1109   1.972       .  S
O1091      C1099   1.258       .  A
O1092     Cr1109   2.041       .  S
O1092      C1093   1.271       .  A
C1093      O1094   1.255       .  A
C1093      C1208   1.446       .  S
O1094     Cr1110   1.962       .  S
O1095     Cr1110   2.019       .  S
O1095      C1096   1.267       .  A
C1096      O1097   1.253       .  A
C1096      C1216   1.428       .  S
O1098     Cr1111   2.015       .  S
C1099      C1209   1.438       .  S
O1100      C1108   1.271       .  A
O1101      C1102   1.258       .  A
C1102      C1212   1.438       .  S
O1103     Cr1110   2.015       .  S
O1104      C1105   1.253       .  A
C1105      O1106   1.267       .  A
C1105      C1240   1.428       .  S
O1106     Cr1111   2.019       .  S
O1107     Cr1111   1.962       .  S
O1107      C1108   1.255       .  A
C1108      C1205   1.446       .  S
Cr1109     O1112   1.777       .  S
Cr1110     O1112   1.768       .  S
O1113     Cr1131   2.035       .  S
O1113      C1121   1.269       .  A
O1114     Cr1131   1.982       .  S
O1114      C1115   1.261       .  A
C1115      O1116   1.265       .  A
C1115      C1203   1.439       .  S
O1116     Cr1132   2.007       .  S
O1117     Cr1132   1.965       .  S
O1117      C1118   1.256       .  A
C1118      O1119   1.264       .  A
C1118      C1238   1.427       .  S
O1119     Cr1133   2.009       .  S
O1120     Cr1133   1.969       .  S
O1120      C1121   1.256       .  A
C1121      C1206   1.447       .  S
O1122     Cr1131   1.982       .  S
O1122      C1130   1.261       .  A
O1123     Cr1131   2.035       .  S
O1123      C1124   1.269       .  A
C1124      O1125   1.256       .  A
C1124      C1207   1.447       .  S
O1125     Cr1132   1.969       .  S
O1126     Cr1132   2.009       .  S
O1126      C1127   1.264       .  A
C1127      O1128   1.256       .  A
C1127      C1213   1.427       .  S
O1128     Cr1133   1.966       .  S
O1129     Cr1133   2.007       .  S
O1129      C1130   1.265       .  A
C1130      C1201   1.439       .  S
Cr1131     O1134   1.777       .  S
Cr1132     O1134   1.770       .  S
Cr1133     O1134   1.770       .  S
O1135     Cr1153   2.005       .  S
O1135      C1143   1.263       .  A
O1136     Cr1153   1.980       .  S
O1136      C1137   1.260       .  A
C1137      O1138   1.264       .  A
C1137      C1227   1.440       .  S
O1138     Cr1154   2.010       .  S
O1139     Cr1154   1.997       .  S
O1139      C1140   1.263       .  A
C1140      O1141   1.265       .  A
C1140      C1217   1.456       .  S
O1141     Cr1155   2.018       .  S
O1142     Cr1155   1.988       .  S
O1142      C1143   1.262       .  A
C1143      C1224   1.440       .  S
O1144     Cr1153   1.985       .  S
O1144      C1152   1.260       .  A
O1145     Cr1153   2.003       .  S
O1145      C1146   1.262       .  A
C1146      O1147   1.262       .  A
C1146      C1279   1.443       .  S
O1147     Cr1154   1.992       .  S
O1148     Cr1154   2.011       .  S
O1148      C1149   1.265       .  A
C1149      O1150   1.262       .  A
C1149      C1302   1.444       .  S
O1150     Cr1155   1.986       .  S
O1151     Cr1155   2.016       .  S
O1151      C1152   1.264       .  A
C1152      C1289   1.445       .  S
Cr1153     O1156   1.784       .  S
Cr1154     O1156   1.784       .  S
Cr1155     O1156   1.783       .  S
O1157     Cr1175   2.005       .  S
O1157      C1165   1.263       .  A
O1158     Cr1175   1.980       .  S
O1158      C1159   1.260       .  A
C1159      O1160   1.264       .  A
C1159      C1210   1.439       .  S
O1160     Cr1176   2.009       .  S
O1161     Cr1176   1.998       .  S
O1161      C1162   1.263       .  A
C1162      O1163   1.265       .  A
C1162      C1220   1.457       .  S
O1163     Cr1177   2.019       .  S
O1164     Cr1177   1.987       .  S
O1164      C1165   1.262       .  A
C1165      C1202   1.439       .  S
O1166     Cr1175   1.985       .  S
O1166      C1174   1.260       .  A
O1167     Cr1175   2.003       .  S
O1167      C1168   1.262       .  A
C1168      O1169   1.262       .  A
C1168      C1260   1.444       .  S
O1169     Cr1176   1.993       .  S
O1170     Cr1176   2.010       .  S
O1170      C1171   1.264       .  A
C1171      O1172   1.262       .  A
C1171      C1334   1.443       .  S
O1172     Cr1177   1.985       .  S
O1173     Cr1177   2.017       .  S
O1173      C1174   1.264       .  A
C1174      C1267   1.446       .  S
Cr1175     O1178   1.784       .  S
Cr1176     O1178   1.784       .  S
Cr1177     O1178   1.783       .  S
O1179     Cr1197   2.005       .  S
O1179      C1187   1.263       .  A
O1180     Cr1197   1.980       .  S
O1180      C1181   1.260       .  A
C1181      O1182   1.264       .  A
C1181      C1211   1.439       .  S
O1182     Cr1198   2.009       .  S
O1183     Cr1198   1.998       .  S
O1183      C1184   1.263       .  A
C1184      O1185   1.265       .  A
C1184      C1242   1.457       .  S
O1185     Cr1199   2.019       .  S
O1186     Cr1199   1.987       .  S
O1186      C1187   1.262       .  A
C1187      C1204   1.440       .  S
O1188     Cr1197   1.984       .  S
O1188      C1196   1.260       .  A
O1189     Cr1197   2.003       .  S
O1189      C1190   1.262       .  A
C1190      O1191   1.262       .  A
C1190      C1243   1.444       .  S
O1191     Cr1198   1.993       .  S
O1192     Cr1198   2.010       .  S
O1192      C1193   1.264       .  A
C1193      O1194   1.262       .  A
C1193      C1256   1.443       .  S
O1194     Cr1199   1.986       .  S
O1195     Cr1199   2.017       .  S
O1195      C1196   1.264       .  A
C1196      C1249   1.445       .  S
Cr1197     O1200   1.783       .  S
Cr1198     O1200   1.784       .  S
Cr1199     O1200   1.783       .  S
C1201      C1202   1.208       .  T
C1203      C1204   1.209       .  T
C1205      C1206   1.213       .  T
C1207      C1208   1.213       .  T
C1209      C1210   1.208       .  T
C1211      C1212   1.208       .  T
C1213      C1214   1.202       .  T
C1215      C1216   1.202       .  T
C1217      C1218   1.218       .  T
C1219      C1220   1.219       .  T
C1221      C1222   1.202       .  T
C1223      C1224   1.209       .  T
C1225      C1226   1.202       .  T
C1227      C1228   1.208       .  T
C1229      C1230   1.213       .  T
C1231      C1232   1.213       .  T
C1233      C1234   1.202       .  T
C1235      C1236   1.202       .  T
C1237      C1238   1.202       .  T
C1239      C1240   1.202       .  T
C1241      C1242   1.219       .  T
C1243      C1244   1.211       .  T
C1245      C1246   1.210       .  T
C1247      C1248   1.208       .  T
C1249      C1250   1.212       .  T
C1251      C1252   1.200       .  T
C1253      C1254   1.194       .  T
C1255      C1256   1.211       .  T
C1257      C1258   1.206       .  T
C1259      C1260   1.211       .  T
C1261      C1262   1.206       .  T
C1263      C1264   1.210       .  T
C1265      C1266   1.208       .  T
C1267      C1268   1.212       .  T
C1269      C1270   1.205       .  T
C1271      C1272   1.200       .  T
C1273      C1274   1.200       .  T
C1275      C1276   1.205       .  T
C1277      C1278   1.205       .  T
C1279      C1280   1.211       .  T
C1281      C1282   1.200       .  T
C1283      C1284   1.207       .  T
C1285      C1286   1.210       .  T
C1287      C1288   1.204       .  T
C1289      C1290   1.211       .  T
C1291      C1292   1.200       .  T
C1293      C1294   1.200       .  T
C1295      C1296   1.200       .  T
C1297      C1298   1.199       .  T
C1299      C1300   1.194       .  T
C1301      C1302   1.211       .  T
C1303      C1304   1.208       .  T
C1305      C1306   1.209       .  T
C1307      C1308   1.218       .  T
C1309      C1310   1.211       .  T
C1311      C1312   1.205       .  T
C1313      C1314   1.206       .  T
C1315      C1316   1.205       .  T
C1317      C1318   1.211       .  T
C1319      C1320   1.206       .  T
C1321      C1322   1.199       .  T
C1323      C1324   1.210       .  T
C1325      C1326   1.207       .  T
C1327      C1328   1.211       .  T
C1329      C1330   1.204       .  T
C1331      C1332   1.194       .  T
C1333      C1334   1.210       .  T
C1335      C1336   1.199       .  T
C1337      C1338   1.193       .  T
C1339      C1340   1.200       .  T
C1341      C1342   1.199       .  T
C1343      C1344   1.205       .  T
