geometry optimzed in LAMMPS
_audit_creation_date              2020-11-30 
_audit_creation_method            'lammps2cif' 
_symmetry_space_group_name_H-M    'P1' 
_symmetry_Int_Tables_number       1 
_symmetry_cell_setting            triclinic 
loop_ 
_symmetry_equiv_pos_as_xyz 
  x,y,z 
_cell_length_a                    25.99478121 
_cell_length_b                    26.519231416644402 
_cell_length_c                    40.48972220889098 
_cell_angle_alpha                 89.86903801240246 
_cell_angle_beta                  89.94616342435317 
_cell_angle_gamma                 119.93532411260868 
loop_ 
_atom_site_label 
_atom_site_type_symbol 
_atom_site_fract_x 
_atom_site_fract_y 
_atom_site_fract_z 
_atom_site_charge 
C1          C  0.33366758  0.16494935  0.21791136     0.45200
H2          H  0.33370091  0.16491897  0.19045486    -0.03800
C3          C  0.33380529  0.16517033  0.28231572     0.45300
H4          H  0.33397709  0.16526066  0.30974149    -0.03800
C5          C  0.30517656  0.10358787  0.23289438    -0.17500
C6          C  0.39625376  0.19833069  0.23267724    -0.17200
C7          C  0.29989090  0.19332155  0.23278763    -0.17600
C8          C  0.30529861  0.10367398  0.26752246    -0.17600
C9          C  0.39630731  0.19860056  0.26729072    -0.17100
C10         C  0.30007547  0.19362676  0.26749344    -0.17500
C11         C  0.17080679  0.33539053  0.21664225     0.45200
H12         H  0.17147491  0.33543264  0.18923301    -0.03800
C13         C  0.16982665  0.33507101  0.28103665     0.45300
H14         H  0.16940195  0.33472112  0.30843699    -0.03800
C15         C  0.10781870  0.30608076  0.23114344    -0.17500
C16         C  0.19982737  0.30263311  0.23194352    -0.17200
C17         C  0.20361428  0.39686875  0.23156131    -0.17600
C18         C  0.10739826  0.30619886  0.26582486    -0.17600
C19         C  0.19968557  0.30279213  0.26653349    -0.17100
C20         C  0.20322937  0.39653915  0.26625950    -0.17500
C21         C  0.29611403  0.29128271  0.16754871     0.80000
N22         N  0.25900339  0.30694715  0.18242217    -0.78300
C23         C  0.22964646  0.27906145  0.21032914     0.82400
N24         N  0.23537227  0.23426629  0.22115894    -0.78200
C25         C  0.27856220  0.22460656  0.21057432     0.82500
N26         N  0.30850001  0.25244388  0.18273806    -0.80000
C27         C  0.29805053  0.29459376  0.33124877     0.80000
N28         N  0.26106344  0.31012223  0.31598426    -0.78300
C29         C  0.23049752  0.28055197  0.28873977     0.82400
N30         N  0.23590145  0.23512623  0.27883365    -0.78200
C31         C  0.27934339  0.22584017  0.28949130     0.82500
N32         N  0.30992538  0.25481854  0.31689869    -0.80000
C33         C  0.20756709  0.49751828  0.33191521     0.80000
N34         N  0.24620820  0.05090294  0.31747630    -0.78300
C35         C  0.27538731  0.05107493  0.28963969     0.82400
N36         N  0.26826809  0.00007291  0.27900031    -0.78200
C37         C  0.22512719  0.44842598  0.28871779     0.82500
N38         N  0.19452840  0.44687209  0.31626150    -0.80000
C39         C  0.20679953  0.99952201  0.16830529     0.80000
N40         N  0.24494967  0.05100227  0.18339415    -0.78300
C41         C  0.27473717  0.05100452  0.21090383     0.82400
N42         N  0.26786135  0.99990650  0.22137020    -0.78200
C43         C  0.22637271  0.44975991  0.20962891     0.82500
N44         N  0.19866003  0.44970996  0.18114985    -0.80000
C45         C  0.00404191  0.20845805  0.16560341     0.80000
N46         N  0.45011782  0.19162339  0.18326057    -0.78300
C47         C  0.44979834  0.22085020  0.21064675     0.82400
N48         N  0.00153232  0.26444515  0.21969587    -0.78200
C49         C  0.05453573  0.27437364  0.20893264     0.82500
N50         N  0.05600931  0.24698413  0.18091661    -0.80000
C51         C  0.00224090  0.20562105  0.32943722     0.80000
N52         N  0.05457708  0.24488142  0.31480789    -0.78300
C53         C  0.05388651  0.27485716  0.28775470     0.82400
N54         N  0.00131041  0.26698007  0.27740212    -0.78200
C55         C  0.44987156  0.22169183  0.28920064     0.82500
N56         N  0.45051722  0.19196434  0.31637493    -0.80000
O57         O  0.40349602  0.45386089  0.46035050    -0.82000
C58         C  0.09789038  0.00573251  0.04502849     0.97300
O59         O  0.07489032  0.46854066  0.02604778    -0.71100
O60         O  0.45732966  0.40961858  0.03833332    -0.74700
Al61       Al  0.99920967  0.43453112  0.49879526     1.49000
C62         C  0.40740125  0.40394269  0.04465573     0.92600
O63         O  0.44851101  0.04548047  0.03943246    -0.80900
O64         O  0.04509218  0.09169245  0.45950567    -0.74500
Al65       Al  0.42545301  0.49658080  0.99931341     1.90100
O66         O  0.04297314  0.10946215  0.02485710    -0.73600
O67         O  0.10506770  0.03973744  0.47121026    -0.73400
O68         O  0.09582635  0.05087876  0.03807533    -0.79100
O69         O  0.04213836  0.45400294  0.45926788    -0.77300
O70         O  0.99556212  0.00200124  0.50006061    -1.13400
O71         O  0.42991620  0.38980991  0.47329513    -0.72600
C72         C  0.40472113  0.40812298  0.45396157     0.98100
C73         C  0.99835551  0.09297043  0.04353218     0.94500
Al74       Al  0.06447018  0.06855345  0.49875624     1.55600
O75         O  0.38603623  0.42746744  0.02625434    -0.77200
C76         C  0.08893387  0.50051900  0.45237217     0.98700
C77         C  0.99858200  0.09261407  0.45227328     0.93500
O78         O  0.45966159  0.06955247  0.47220503    -0.82600
C79         C  0.00178581  0.17649140  0.36056837     0.01000
C80         C  0.45921478  0.16401014  0.38546097    -0.12200
C81         C  0.45856178  0.13820633  0.41578946     0.01900
C82         C  0.99829618  0.12251839  0.42138906    -0.00500
C83         C  0.04242671  0.13357113  0.39769397    -0.12200
C84         C  0.04432137  0.15988405  0.36752812     0.01700
H85         H  0.42484554  0.17458527  0.38021010     0.14700
H86         H  0.07509288  0.12034240  0.40232186     0.14700
C87         C  0.08833084  0.16605302  0.34360823     0.36400
C88         C  0.41115485  0.12633883  0.43867147     0.36300
N89         N  0.12336471  0.17024583  0.32449554    -0.44000
N90         N  0.37297102  0.11675025  0.45688440    -0.44000
C91         C  0.00494625  0.18163478  0.13347804    -0.00400
C92         C  0.45719357  0.16514366  0.11391112    -0.12200
C93         C  0.45479586  0.13851076  0.08370571     0.01900
C94         C  0.00185301  0.12829926  0.07242325    -0.00500
C95         C  0.05055569  0.14695895  0.09354701    -0.12200
C96         C  0.05210497  0.17243151  0.12402378     0.01700
H97         H  0.42345002  0.17650007  0.11959912     0.14700
H98         H  0.08601780  0.13837864  0.08707657     0.14700
C99         C  0.10008200  0.18336302  0.14601204     0.36400
C100        C  0.40733398  0.12706788  0.06105479     0.36300
N101        N  0.13837133  0.19064726  0.16343432    -0.44000
N102        N  0.36926815  0.11804442  0.04295963    -0.44000
C103        C  0.17876104  0.99998756  0.13634885    -0.00400
C104        C  0.20449019  0.05161519  0.11748109    -0.12200
C105        C  0.18034760  0.05444659  0.08710328     0.01900
C106        C  0.12965030  0.00468964  0.07487429    -0.00500
C107        C  0.12580977  0.45790554  0.08477565    -0.12200
C108        C  0.15161600  0.45308290  0.11407657     0.01700
H109        H  0.24389168  0.09004098  0.12629971     0.14700
H110        H  0.09811297  0.41881511  0.07069424     0.14700
C111        C  0.14173337  0.39603128  0.12265695     0.36400
C112        C  0.20942211  0.10841448  0.06872994     0.36300
N113        N  0.13340987  0.34993475  0.12887889    -0.44000
N114        N  0.23297475  0.15170722  0.05407601    -0.44000
C115        C  0.12268037  0.50186048  0.42272020    -0.00400
C116        C  0.11900422  0.44967679  0.41243952    -0.12200
C117        C  0.14615639  0.44671744  0.38329765     0.01900
C118        C  0.17768823  0.49708635  0.36334560    -0.00500
C119        C  0.12733227  0.94761413  0.37362434    -0.12200
C120        C  0.09720946  0.94421543  0.40287355     0.01700
H121        H  0.09463742  0.41067857  0.42735122     0.14700
H122        H  0.10948387  0.90979336  0.35767947     0.14700
C123        C  0.04552057  0.88883868  0.41055865     0.36400
C124        C  0.14113360  0.39135327  0.37537496     0.36300
N125        N  0.00467427  0.84396692  0.41651446    -0.44000
N126        N  0.13648369  0.34651812  0.36968061    -0.44000
C127        C  0.37916987  0.37788808  0.42257948    -0.00400
C128        C  0.33146258  0.32062876  0.42276705    -0.12200
C129        C  0.30469998  0.29276806  0.39305570     0.01900
C130        C  0.32645216  0.32209479  0.36269687    -0.00500
C131        C  0.37491943  0.37883466  0.36247474    -0.12200
C132        C  0.40160206  0.40674049  0.39210619     0.01700
H133        H  0.31410516  0.29837364  0.44611045     0.14700
H134        H  0.39199523  0.40123923  0.33913236     0.14700
C135        C  0.45335200  0.46419699  0.39063390     0.36400
C136        C  0.25322778  0.23519992  0.39426445     0.36300
N137        N  0.49511930  0.50998144  0.38945029    -0.44000
N138        N  0.21156646  0.18932754  0.39509818    -0.44000
C139        C  0.32447155  0.31836609  0.13585966    -0.00400
C140        C  0.29055826  0.32666379  0.11173567    -0.12200
C141        C  0.31539540  0.35236330  0.08124009     0.01900
C142        C  0.37587997  0.37145852  0.07482897    -0.00500
C143        C  0.40920938  0.36209714  0.09892620    -0.12200
C144        C  0.38423575  0.33581253  0.12907656     0.01700
H145        H  0.24415008  0.31223710  0.11657305     0.14700
H146        H  0.45583051  0.37679831  0.09467377     0.14700
C147        C  0.42222311  0.33045769  0.15311053     0.36400
C148        C  0.27726875  0.35688828  0.05693235     0.36300
N149        N  0.45328421  0.32674512  0.17217564    -0.44000
N150        N  0.24641655  0.36005421  0.03746486    -0.44000
C151        C  0.33288784  0.16597167  0.71810333     0.45200
H152        H  0.33298157  0.16658080  0.69064844    -0.03800
C153        C  0.33272183  0.16497572  0.78252459     0.45300
H154        H  0.33281760  0.16456882  0.80994808    -0.03800
C155        C  0.30425627  0.10423127  0.73265315    -0.17500
C156        C  0.39547584  0.19876195  0.73289985    -0.17200
C157        C  0.29932997  0.19436161  0.73337503    -0.17600
C158        C  0.30448365  0.10379312  0.76736309    -0.17600
C159        C  0.39533882  0.19880566  0.76757220    -0.17100
C160        C  0.29874569  0.19341596  0.76805698    -0.17500
C161        C  0.16843469  0.33455779  0.71834250     0.45200
H162        H  0.16884021  0.33418182  0.69092824    -0.03800
C163        C  0.16800335  0.33496328  0.78274614     0.45300
H164        H  0.16778112  0.33499620  0.81016183    -0.03800
C165        C  0.10573049  0.30554898  0.73307193    -0.17500
C166        C  0.19769441  0.30213875  0.73367279    -0.17200
C167        C  0.20121937  0.39613502  0.73285750    -0.17600
C168        C  0.10545986  0.30601457  0.76774140    -0.17600
C169        C  0.19729406  0.30200622  0.76820896    -0.17100
C170        C  0.20135050  0.39638084  0.76760011    -0.17500
C171        C  0.30251780  0.30071131  0.67179202     0.80000
N172        N  0.26286780  0.31336679  0.68617437    -0.78300
C173        C  0.22978044  0.28110632  0.71207431     0.82400
N174        N  0.23435204  0.23479455  0.72135151    -0.78200
C175        C  0.27990405  0.22783808  0.71171275     0.82500
N176        N  0.31362220  0.26019046  0.68584050    -0.80000
C177        C  0.28994877  0.28760755  0.83415308     0.80000
N178        N  0.25434908  0.30456638  0.81862168    -0.78300
C179        C  0.22659995  0.27794193  0.79020213     0.82400
N180        N  0.23384195  0.23422668  0.77909672    -0.78200
C181        C  0.27600364  0.22359442  0.79040623     0.82500
N182        N  0.30370776  0.24968119  0.81904607    -0.80000
C183        C  0.21102421  0.50035309  0.83316923     0.80000
N184        N  0.25011239  0.05015179  0.81855917    -0.78300
C185        C  0.27627592  0.05093549  0.78938188     0.82400
N186        N  0.26822221  0.00031512  0.77772697    -0.78200
C187        C  0.22442755  0.44901556  0.78959061     0.82500
N188        N  0.19624329  0.44879508  0.81792929    -0.80000
C189        C  0.20799633  0.00036379  0.66693599     0.80000
N190        N  0.24533235  0.05184203  0.68244145    -0.78300
C191        C  0.27470727  0.05189975  0.71017258     0.82400
N192        N  0.26839363  0.00089404  0.72032143    -0.78200
C193        C  0.22329220  0.44836074  0.71032056     0.82500
N194        N  0.19458661  0.44735372  0.68202610    -0.80000
C195        C  0.00173277  0.20850205  0.66760270     0.80000
N196        N  0.44965629  0.19158295  0.68346720    -0.78300
C197        C  0.44915670  0.22095792  0.71082770     0.82400
N198        N  0.99975708  0.26418397  0.72196958    -0.78200
C199        C  0.05251967  0.27393980  0.71103150     0.82500
N200        N  0.05380457  0.24669609  0.68290927    -0.80000
C201        C  0.00062908  0.20333440  0.83070417     0.80000
N202        N  0.05284862  0.24330026  0.81625976    -0.78300
C203        C  0.05205528  0.27435825  0.78976470     0.82400
N204        N  0.99939545  0.26689501  0.77977480    -0.78200
C205        C  0.44879789  0.22240786  0.78965959     0.82500
N206        N  0.44923050  0.19373918  0.81739250    -0.80000
O207        O  0.40363350  0.45473666  0.95943201    -0.82000
C208        C  0.09408561  0.00768809  0.54476857     0.97300
O209        O  0.06933234  0.46234805  0.52561787    -0.71100
O210        O  0.45792076  0.41031588  0.53970654    -0.74700
Al211      Al  0.00501257  0.43891211  0.99918376     1.49000
C212        C  0.40941847  0.40725613  0.54688258     0.92600
O213        O  0.45073068  0.04501499  0.53895048    -0.80900
O214        O  0.04829407  0.08703100  0.95864105    -0.74500
Al215      Al  0.42646829  0.49723226  0.49979070     1.90100
O216        O  0.03975654  0.11212682  0.52586106    -0.73600
O217        O  0.11084657  0.03767168  0.97197137    -0.73400
O218        O  0.09075089  0.05219744  0.53817794    -0.79100
O219        O  0.04870584  0.45948223  0.96000463    -0.77300
O220        O  0.00018658  0.99872804  0.00023585    -1.13400
O221        O  0.43224939  0.39189720  0.97178601    -0.72600
C222        C  0.40525248  0.40915222  0.95307685     0.98100
C223        C  0.99451295  0.09613601  0.54391762     0.94500
Al224      Al  0.06877715  0.06584021  0.99848064     1.55600
O225        O  0.38747082  0.42973392  0.52803326    -0.77200
C226        C  0.09546534  0.50648655  0.95375475     0.98700
C227        C  0.00172734  0.08854459  0.95225281     0.93500
O228        O  0.45822615  0.07070543  0.97271792    -0.82600
C229        C  0.00065262  0.17272767  0.86122861     0.01000
C230        C  0.46419289  0.17468808  0.88884000    -0.12200
C231        C  0.46371329  0.14834193  0.91897300     0.01900
C232        C  0.99974840  0.11806579  0.92147925    -0.00500
C233        C  0.04365398  0.13057622  0.89739169    -0.12200
C234        C  0.04405867  0.15692436  0.86744932     0.01700
H235        H  0.43485254  0.19234606  0.88543329     0.14700
H236        H  0.07723356  0.11841125  0.90149768     0.14700
C237        C  0.08712824  0.16337599  0.84283184     0.36400
C238        C  0.42334681  0.14539055  0.94442539     0.36300
N239        N  0.12114938  0.16740211  0.82307924    -0.44000
N240        N  0.39073482  0.14301141  0.96466453    -0.44000
C241        C  0.00210930  0.18216027  0.63524698    -0.00400
C242        C  0.45232511  0.15574930  0.61616613    -0.12200
C243        C  0.45003623  0.12898258  0.58595170     0.01900
C244        C  0.99804989  0.13029895  0.57347331    -0.00500
C245        C  0.04710147  0.14864769  0.59432595    -0.12200
C246        C  0.04925390  0.17347434  0.62511364     0.01700
H247        H  0.41430846  0.15943800  0.62376441     0.14700
H248        H  0.08245690  0.14034772  0.58733091     0.14700
C249        C  0.09802584  0.18474258  0.64660412     0.36400
C250        C  0.39664928  0.10659071  0.56640194     0.36300
N251        N  0.13696426  0.19263871  0.66368189    -0.44000
N252        N  0.35383496  0.08839234  0.55075607    -0.44000
C253        C  0.18003061  0.00089649  0.63479061    -0.00400
C254        C  0.18921589  0.05450133  0.62259803    -0.12200
C255        C  0.16469457  0.05843778  0.59265560     0.01900
C256        C  0.12788139  0.00743214  0.57435375    -0.00500
C257        C  0.11912280  0.45208147  0.58556594    -0.12200
C258        C  0.14478254  0.44807879  0.61518436     0.01700
H259        H  0.21619754  0.09416931  0.63634828     0.14700
H260        H  0.08969622  0.41245962  0.57235142     0.14700
C261        C  0.13294581  0.39091715  0.62500700     0.36400
C262        C  0.18012076  0.11597443  0.58120984     0.36300
N263        N  0.12320382  0.34467515  0.63208533    -0.44000
N264        N  0.19337798  0.16235167  0.57217250    -0.44000
C265        C  0.13104664  0.50828589  0.92492573    -0.00400
C266        C  0.13013041  0.45676050  0.91597016    -0.12200
C267        C  0.15679905  0.45313931  0.88681229     0.01900
C268        C  0.18421117  0.50177470  0.86533566    -0.00500
C269        C  0.13785479  0.94420198  0.87690896    -0.12200
C270        C  0.10842013  0.94045472  0.90643390     0.01700
H271        H  0.10803789  0.41875451  0.93185388     0.14700
H272        H  0.12072776  0.90591268  0.86139505     0.14700
C273        C  0.05952925  0.88401003  0.91551095     0.36400
C274        C  0.15608605  0.39922460  0.88041260     0.36300
N275        N  0.02102279  0.83840665  0.92271872    -0.44000
N276        N  0.15536918  0.35582463  0.87578778    -0.44000
C277        C  0.37703379  0.37704593  0.92269769    -0.00400
C278        C  0.33152187  0.31880599  0.92455064    -0.12200
C279        C  0.30257076  0.28846458  0.89582962     0.01900
C280        C  0.31989346  0.31659799  0.86487099    -0.00500
C281        C  0.36592310  0.37441143  0.86305164    -0.12200
C282        C  0.39492602  0.40461143  0.89160976     0.01700
H283        H  0.31772912  0.29758989  0.94844435     0.14700
H284        H  0.37954931  0.39580955  0.83918781     0.14700
C285        C  0.44487446  0.46283794  0.88822581     0.36400
C286        C  0.25361760  0.22967303  0.89882278     0.36300
N287        N  0.48532346  0.50917532  0.88532234    -0.44000
N288        N  0.21398924  0.18278730  0.90138058    -0.44000
C289        C  0.33151076  0.32977931  0.64063800    -0.00400
C290        C  0.29714829  0.33813107  0.61686927    -0.12200
C291        C  0.32063495  0.36213507  0.58594045     0.01900
C292        C  0.38020031  0.37895413  0.57844260    -0.00500
C293        C  0.41472646  0.37130069  0.60261473    -0.12200
C294        C  0.39107826  0.34707087  0.63344117     0.01700
H295        H  0.25103899  0.32439221  0.62217222     0.14700
H296        H  0.46099946  0.38525808  0.59772645     0.14700
C297        C  0.42978987  0.34306799  0.65757561     0.36400
C298        C  0.28177305  0.36710683  0.56235407     0.36300
N299        N  0.46134299  0.34049106  0.67677988    -0.44000
N300        N  0.25019297  0.37073523  0.54360189    -0.44000
C301        C  0.33051444  0.66552350  0.21854387     0.45200
H302        H  0.33080497  0.66576278  0.19115292    -0.03800
C303        C  0.32990505  0.66474189  0.28286093     0.45300
H304        H  0.32948746  0.66417291  0.31028508    -0.03800
C305        C  0.30429420  0.60417862  0.23309576    -0.17500
C306        C  0.39266952  0.70054422  0.23357583    -0.17200
C307        C  0.29453864  0.69154966  0.23333345    -0.17600
C308        C  0.30420584  0.60367330  0.26771005    -0.17600
C309        C  0.39243913  0.70072854  0.26821483    -0.17100
C310        C  0.29420552  0.69116740  0.26808665    -0.17500
C311        C  0.16613734  0.83423470  0.21837602     0.45200
H312        H  0.16582666  0.83418155  0.19097241    -0.03800
C313        C  0.16666093  0.83468924  0.28273462     0.45300
H314        H  0.16694098  0.83489176  0.31014776    -0.03800
C315        C  0.10366017  0.80616352  0.23351920    -0.17500
C316        C  0.19390838  0.80009536  0.23317849    -0.17200
C317        C  0.20090405  0.89585959  0.23305192    -0.17600
C318        C  0.10397443  0.80724912  0.26817698    -0.17600
C319        C  0.19390537  0.80004035  0.26782796    -0.17100
C320        C  0.20125920  0.89600736  0.26770226    -0.17500
C321        C  0.28604549  0.78577534  0.16674311     0.80000
N322        N  0.24976778  0.80187766  0.18242532    -0.78300
C323        C  0.22209937  0.77528401  0.21098259     0.82400
N324        N  0.22916732  0.73155421  0.22209182    -0.78200
C325        C  0.27185382  0.72169289  0.21098952     0.82500
N326        N  0.29989364  0.74819987  0.18237919    -0.80000
C327        C  0.28841315  0.78827686  0.33329397     0.80000
N328        N  0.25140618  0.80348490  0.31777054    -0.78300
C329        C  0.22221067  0.77534908  0.29005033     0.82400
N330        N  0.22823133  0.73056276  0.27968402    -0.78200
C331        C  0.27187866  0.72163146  0.29039384     0.82500
N332        N  0.30163094  0.74993727  0.31818385    -0.80000
C333        C  0.20890156  0.99939152  0.33292769     0.80000
N334        N  0.24554366  0.54948398  0.31714424    -0.78300
C335        C  0.27574722  0.55075731  0.28959680     0.82400
N336        N  0.26970084  0.50028765  0.27873539    -0.78200
C337        C  0.22424444  0.94859257  0.28976470     0.82500
N338        N  0.19510685  0.94809025  0.31770759    -0.80000
C339        C  0.21283211  0.50139339  0.16604976     0.80000
N340        N  0.24900487  0.55248537  0.18211350    -0.78300
C341        C  0.27622185  0.55213527  0.21058467     0.82400
N342        N  0.26886727  0.50108133  0.22117573    -0.78200
C343        C  0.22358385  0.94848932  0.21087356     0.82500
N344        N  0.19378036  0.94818708  0.18331574    -0.80000
C345        C  0.99818943  0.70431047  0.17004228     0.80000
N346        N  0.44577161  0.69187167  0.18476149    -0.78300
C347        C  0.44596800  0.72239067  0.21159951     0.82400
N348        N  0.99776544  0.76583157  0.22209492    -0.78200
C349        C  0.05004632  0.77290559  0.21199676     0.82500
N350        N  0.05054206  0.74249674  0.18509454    -0.80000
C351        C  0.99942671  0.71407747  0.33472065     0.80000
N352        N  0.05158973  0.75104485  0.31900745    -0.78300
C353        C  0.05069952  0.77793037  0.29059253     0.82400
N354        N  0.99806716  0.76898804  0.27972233    -0.78200
C355        C  0.44574084  0.72585248  0.29054084     0.82500
N356        N  0.44557002  0.69969965  0.31937387    -0.80000
O357        O  0.40697013  0.95903893  0.46051122    -0.82000
C358        C  0.09975055  0.51258422  0.04457100     0.97300
O359        O  0.07019939  0.96006772  0.02784066    -0.71100
O360        O  0.45070084  0.90761205  0.03926273    -0.74700
Al361      Al  0.99549239  0.93482084  0.50092775     1.49000
C362        C  0.40266377  0.90624836  0.04535141     0.92600
O363        O  0.44123076  0.53833249  0.03923163    -0.80900
O364        O  0.04339840  0.59426727  0.46079605    -0.74500
Al365      Al  0.42997338  0.00242826  0.00006994     1.90100
O366        O  0.03485219  0.60949125  0.02812298    -0.73600
O367        O  0.10655255  0.54503084  0.47037755    -0.73400
O368        O  0.09383183  0.55603885  0.03893442    -0.79100
O369        O  0.03620302  0.95039227  0.46069144    -0.77300
O370        O  0.99660564  0.50045964  0.49922557    -1.13400
O371        O  0.42979648  0.89232584  0.47253745    -0.72600
C372        C  0.40366758  0.91117815  0.45415902     0.98100
C373        C  0.98897817  0.58827226  0.04622671     0.94500
Al374      Al  0.06366160  0.56869425  0.49922402     1.55600
O375        O  0.38581737  0.93431197  0.02738854    -0.77200
C376        C  0.08501124  0.99443328  0.45352512     0.98700
C377        C  0.99603472  0.59439628  0.45489618     0.93500
O378        O  0.44973163  0.56372642  0.47194447    -0.82600
C379        C  0.99900478  0.68651616  0.36681114     0.01000
C380        C  0.44572915  0.63441648  0.37556353    -0.12200
C381        C  0.44309533  0.60412540  0.40440070     0.01900
C382        C  0.99403321  0.62774418  0.42617703    -0.00500
C383        C  0.04616485  0.67864355  0.41697477    -0.12200
C384        C  0.04906966  0.70845433  0.38787060     0.01700
H385        H  0.40791932  0.61552645  0.35904001     0.14700
H386        H  0.08504296  0.69521610  0.43264831     0.14700
C387        C  0.10367548  0.76188015  0.38108798     0.36400
C388        C  0.39005674  0.54887347  0.41036224     0.36300
N389        N  0.14761314  0.80474665  0.37613023    -0.44000
N390        N  0.34724251  0.50467645  0.41466811    -0.44000
C391        C  0.99722040  0.67541384  0.13821241    -0.00400
C392        C  0.44447845  0.62310542  0.13012232    -0.12200
C393        C  0.43912188  0.59436700  0.10026865     0.01900
C394        C  0.98920441  0.61902519  0.07706787    -0.00500
C395        C  0.04308461  0.66672349  0.08749969    -0.12200
C396        C  0.04755263  0.69504621  0.11739416     0.01700
H397        H  0.40726588  0.60460048  0.14716958     0.14700
H398        H  0.08252926  0.68204686  0.07230985     0.14700
C399        C  0.10432645  0.74502127  0.12505415     0.36400
C400        C  0.38340530  0.54188249  0.09403684     0.36300
N401        N  0.15012348  0.78518536  0.13057295    -0.44000
N402        N  0.33853813  0.50001883  0.08922881    -0.44000
C403        C  0.18610942  0.50308178  0.13369075    -0.00400
C404        C  0.19622102  0.55730221  0.12183004    -0.12200
C405        C  0.17092344  0.56211757  0.09237688     0.01900
C406        C  0.13374113  0.51167899  0.07386594    -0.00500
C407        C  0.10479661  0.95303819  0.09314393    -0.12200
C408        C  0.12812594  0.95032240  0.12362507     0.01700
H409        H  0.22374225  0.59666491  0.13571531     0.14700
H410        H  0.06521714  0.91489744  0.08415059     0.14700
C411        C  0.09661625  0.89626839  0.14139098     0.36400
C412        C  0.18471683  0.61970823  0.08194346     0.36300
N413        N  0.06999290  0.85229267  0.15497394    -0.44000
N414        N  0.19614571  0.66601727  0.07376567    -0.44000
C415        C  0.11831215  0.99347675  0.42378687    -0.00400
C416        C  0.17171546  0.04386788  0.41534234    -0.12200
C417        C  0.20279906  0.04657395  0.38649638     0.01900
C418        C  0.17956282  0.99860671  0.36462813    -0.00500
C419        C  0.18184777  0.54952147  0.37402665    -0.12200
C420        C  0.15479989  0.55233815  0.40324806     0.01700
H421        H  0.18963325  0.08152781  0.43139436     0.14700
H422        H  0.20558916  0.58875286  0.35926523     0.14700
C423        C  0.15864397  0.60705391  0.41152213     0.36400
C424        C  0.25951948  0.09831425  0.38099000     0.36300
N425        N  0.16220708  0.65124882  0.41774925    -0.44000
N426        N  0.30506369  0.13981992  0.37689414    -0.44000
C427        C  0.37048750  0.87783041  0.42439355    -0.00400
C428        C  0.37124167  0.82677868  0.41590490    -0.12200
C429        C  0.34462648  0.79632504  0.38678050     0.01900
C430        C  0.31717287  0.81748128  0.36489925    -0.00500
C431        C  0.31498169  0.86752858  0.37395447    -0.12200
C432        C  0.34036762  0.89719666  0.40324345     0.01700
H433        H  0.39283421  0.81038363  0.43206913     0.14700
H434        H  0.29324879  0.88413250  0.35802745     0.14700
C435        C  0.33363400  0.94690777  0.41063078     0.36400
C436        C  0.34467908  0.74264131  0.38093470     0.36300
N437        N  0.32757812  0.98637392  0.41636078    -0.44000
N438        N  0.34460431  0.69946619  0.37665416    -0.44000
C439        C  0.31330429  0.81290155  0.13421457    -0.00400
C440        C  0.30166267  0.85545275  0.12097359    -0.12200
C441        C  0.32746311  0.88431788  0.09130256     0.01900
C442        C  0.36718621  0.87184635  0.07425878    -0.00500
C443        C  0.37706461  0.82785556  0.08661689    -0.12200
C444        C  0.35023922  0.79793767  0.11583489     0.01700
H445        H  0.27285919  0.86732398  0.13404827     0.14700
H446        H  0.40642072  0.81679469  0.07339156     0.14700
C447        C  0.36163625  0.75198665  0.12549657     0.36400
C448        C  0.31378005  0.92790067  0.07982391     0.36300
N449        N  0.37124740  0.71511363  0.13236410    -0.44000
N450        N  0.30243022  0.96257016  0.07065244    -0.44000
C451        C  0.33045435  0.66482412  0.71722796     0.45200
H452        H  0.33080075  0.66507519  0.68977281    -0.03800
C453        C  0.33001756  0.66469800  0.78161005     0.45300
H454        H  0.32978285  0.66451613  0.80904444    -0.03800
C455        C  0.30291680  0.60343513  0.73202682    -0.17500
C456        C  0.39282219  0.69875797  0.73228194    -0.17200
C457        C  0.29566145  0.69222506  0.73211152    -0.17600
C458        C  0.30326392  0.60351293  0.76667501    -0.17600
C459        C  0.39245308  0.69943654  0.76690594    -0.17100
C460        C  0.29532216  0.69198590  0.76681619    -0.17500
C461        C  0.16777592  0.83530142  0.71712940     0.45200
H462        H  0.16816731  0.83524518  0.68972992    -0.03800
C463        C  0.16729124  0.83496661  0.78150790     0.45300
H464        H  0.16710113  0.83474841  0.80893597    -0.03800
C465        C  0.10497038  0.80690274  0.73183091    -0.17500
C466        C  0.19599671  0.80175860  0.73224033    -0.17200
C467        C  0.20176011  0.89673810  0.73195769    -0.17600
C468        C  0.10485003  0.80720243  0.76655097    -0.17600
C469        C  0.19528966  0.80110391  0.76679489    -0.17100
C470        C  0.20190816  0.89642872  0.76665157    -0.17500
C471        C  0.29312242  0.79210700  0.66766585     0.80000
N472        N  0.25623624  0.80769518  0.68292057    -0.78300
C473        C  0.22640753  0.77902605  0.71056809     0.82400
N474        N  0.23188285  0.73395392  0.72103213    -0.78200
C475        C  0.27460195  0.72396607  0.71010863     0.82500
N476        N  0.30467167  0.75228732  0.68239111    -0.80000
C477        C  0.29288350  0.79195530  0.83118363     0.80000
N478        N  0.25507107  0.80651599  0.81604695    -0.78300
C479        C  0.22433425  0.77710362  0.78894211     0.82400
N480        N  0.22970342  0.73176288  0.77879821    -0.78200
C481        C  0.27399673  0.72337134  0.78906524     0.82500
N482        N  0.30516140  0.75283663  0.81627197    -0.80000
C483        C  0.21487273  0.99820404  0.83424756     0.80000
N484        N  0.24776605  0.55154107  0.81734941    -0.78300
C485        C  0.27531679  0.55132664  0.78902736     0.82400
N486        N  0.26799967  0.50032674  0.77842023    -0.78200
C487        C  0.22603374  0.94856233  0.78901960     0.82500
N488        N  0.19992008  0.94727370  0.81824093    -0.80000
C489        C  0.20849842  0.49849149  0.66630211     0.80000
N490        N  0.24546599  0.55020535  0.68168212    -0.78300
C491        C  0.27380274  0.55077017  0.70993102     0.82400
N492        N  0.26668034  0.50000905  0.72093270    -0.78200
C493        C  0.22425201  0.94943036  0.70979107     0.82500
N494        N  0.19452497  0.94904832  0.68214589    -0.80000
C495        C  0.99956568  0.70547903  0.66818078     0.80000
N496        N  0.44703397  0.69232568  0.68287867    -0.78300
C497        C  0.44661020  0.72071304  0.71062477     0.82400
N498        N  0.99904442  0.76730563  0.72011856    -0.78200
C499        C  0.05154651  0.77504979  0.70975226     0.82500
N500        N  0.05206794  0.74482811  0.68272422    -0.80000
C501        C  0.00012274  0.71174598  0.83239697     0.80000
N502        N  0.05235941  0.74934802  0.81693576    -0.78300
C503        C  0.05151078  0.77686337  0.78874575     0.82400
N504        N  0.99898230  0.76802947  0.77790335    -0.78200
C505        C  0.44541985  0.72415191  0.78935966     0.82500
N506        N  0.44508542  0.69679852  0.81774480    -0.80000
O507        O  0.40522350  0.96004469  0.96052571    -0.82000
C508        C  0.09575973  0.50679008  0.54378294     0.97300
O509        O  0.06698000  0.96271556  0.52696314    -0.71100
O510        O  0.45628348  0.90974316  0.53903039    -0.74700
Al511      Al  0.00036230  0.93171987  0.00093678     1.49000
C512        C  0.40797931  0.90768231  0.54551888     0.92600
O513        O  0.44311678  0.54161308  0.53897235    -0.80900
O514        O  0.04572510  0.59752365  0.96096680    -0.74500
Al515      Al  0.43226244  0.00181964  0.49975611     1.90100
O516        O  0.03502034  0.60662939  0.52791627    -0.73600
O517        O  0.11129150  0.55094424  0.97160974    -0.73400
O518        O  0.09149424  0.55104156  0.53783289    -0.79100
O519        O  0.04304988  0.94813327  0.96138953    -0.77300
O520        O  0.00024848  0.50366905  0.99930496    -1.13400
O521        O  0.42861445  0.89345901  0.97194859    -0.72600
C522        C  0.40386894  0.91332926  0.95325264     0.98100
C523        C  0.98923561  0.58722741  0.54593686     0.94500
Al524      Al  0.06607858  0.57294404  0.99984941     1.55600
O525        O  0.38942701  0.93401265  0.52732303    -0.77200
C526        C  0.09230679  0.99199827  0.95488294     0.98700
C527        C  0.99748222  0.59523141  0.95405265     0.93500
O528        O  0.44797481  0.56428000  0.97239670    -0.82600
C529        C  0.99971843  0.68399329  0.86444200     0.01000
C530        C  0.44425884  0.63290369  0.87488307    -0.12200
C531        C  0.44099952  0.60390334  0.90439192     0.01900
C532        C  0.99492816  0.62666548  0.92446742    -0.00500
C533        C  0.04501499  0.68014775  0.91636545    -0.12200
C534        C  0.04775736  0.70914425  0.88692094     0.01700
H535        H  0.40626889  0.61395898  0.85848657     0.14700
H536        H  0.08242539  0.69938903  0.93317218     0.14700
C537        C  0.09998679  0.76509576  0.88116198     0.36400
C538        C  0.38743319  0.54942210  0.91098378     0.36300
N539        N  0.14205457  0.80990840  0.87690700    -0.44000
N540        N  0.34427355  0.50573046  0.91575100    -0.44000
C541        C  0.99831314  0.67574666  0.63671980    -0.00400
C542        C  0.44918401  0.65969387  0.61488882    -0.12200
C543        C  0.44527742  0.63145164  0.58491551     0.01900
C544        C  0.99141744  0.61939845  0.57610966    -0.00500
C545        C  0.04302863  0.64278422  0.59530239    -0.12200
C546        C  0.04655026  0.66970128  0.62553523     0.01700
H547        H  0.41300306  0.66666519  0.62201153     0.14700
H548        H  0.08001412  0.63767123  0.58730726     0.14700
C549        C  0.09852097  0.68613683  0.64528717     0.36400
C550        C  0.39392118  0.61392857  0.56420752     0.36300
N551        N  0.14025907  0.69768523  0.66076812    -0.44000
N552        N  0.35299997  0.60018975  0.54746322    -0.44000
C553        C  0.18134564  0.49897964  0.63376605    -0.00400
C554        C  0.19377748  0.55304972  0.62043738    -0.12200
C555        C  0.16911513  0.55705086  0.59053933     0.01900
C556        C  0.12963596  0.50592573  0.57318357    -0.00500
C557        C  0.12025105  0.95414295  0.58583160    -0.12200
C558        C  0.14641071  0.95042367  0.61528482     0.01700
H559        H  0.22304493  0.59301916  0.63337536     0.14700
H560        H  0.09316990  0.91474405  0.57186657     0.14700
C561        C  0.13873889  0.89416773  0.62378142     0.36400
C562        C  0.18638413  0.61458674  0.57825266     0.36300
N563        N  0.13239219  0.84872393  0.62979326    -0.44000
N564        N  0.20064308  0.66080331  0.56849225    -0.44000
C565        C  0.12754935  0.99060425  0.92632174    -0.00400
C566        C  0.18022002  0.04154676  0.91760305    -0.12200
C567        C  0.21105505  0.04452278  0.88861877     0.01900
C568        C  0.18802675  0.99632524  0.86695551    -0.00500
C569        C  0.18708494  0.55412232  0.87510284    -0.12200
C570        C  0.16123961  0.55789158  0.90459511     0.01700
H571        H  0.19731899  0.07955767  0.93333232     0.14700
H572        H  0.20857626  0.59232458  0.85936303     0.14700
C573        C  0.16407732  0.61238601  0.91231420     0.36400
C574        C  0.26696694  0.09691599  0.88254846     0.36300
N575        N  0.16685980  0.65634384  0.91826785    -0.44000
N576        N  0.31192461  0.13887575  0.87797748    -0.44000
C577        C  0.37435660  0.88219091  0.92218067    -0.00400
C578        C  0.37147471  0.82892047  0.91497973    -0.12200
C579        C  0.34663202  0.79915107  0.88541541     0.01900
C580        C  0.32316072  0.82234308  0.86221845    -0.00500
C581        C  0.32629896  0.87563132  0.86938916    -0.12200
C582        C  0.35170109  0.90571032  0.89860278     0.01700
H583        H  0.38884004  0.81022459  0.93250857     0.14700
H584        H  0.30922315  0.89462291  0.85185001     0.14700
C585        C  0.35443502  0.96110224  0.90289208     0.36400
C586        C  0.34494188  0.74446372  0.88022598     0.36300
N587        N  0.35650323  0.00545434  0.90599513    -0.44000
N588        N  0.34401935  0.70079664  0.87630818    -0.44000
C589        C  0.32202693  0.82024402  0.63605525    -0.00400
C590        C  0.29302755  0.84000481  0.61474187    -0.12200
C591        C  0.31896720  0.86775128  0.58478964     0.01900
C592        C  0.37482353  0.87523790  0.57541394    -0.00500
C593        C  0.40283979  0.85425665  0.59652259    -0.12200
C594        C  0.37780339  0.82813002  0.62662608     0.01700
H595        H  0.24999230  0.83408229  0.62155577     0.14700
H596        H  0.44617379  0.86035703  0.59026094     0.14700
C597        C  0.41358508  0.81504639  0.64821032     0.36400
C598        C  0.28740742  0.88851811  0.56473671     0.36300
N599        N  0.44409467  0.80640089  0.66514654    -0.44000
N600        N  0.26210810  0.90535062  0.54881686    -0.44000
C601        C  0.83311066  0.16413449  0.21641249     0.45200
H602        H  0.83256933  0.16388597  0.18896041    -0.03800
C603        C  0.83421142  0.16481062  0.28081809     0.45300
H604        H  0.83484079  0.16513909  0.30823834    -0.03800
C605        C  0.80460301  0.10274452  0.23164006    -0.17500
C606        C  0.89609048  0.19744575  0.23079977    -0.17200
C607        C  0.79996276  0.19312438  0.23159464    -0.17600
C608        C  0.80552454  0.10322951  0.26624389    -0.17600
C609        C  0.89635508  0.19814211  0.26544314    -0.17100
C610        C  0.80050050  0.19333947  0.26628699    -0.17500
C611        C  0.67039210  0.33533400  0.21725669     0.45200
H612        H  0.67060561  0.33560647  0.18984288    -0.03800
C613        C  0.67025652  0.33448235  0.28165040     0.45300
H614        H  0.67021161  0.33384948  0.30905907    -0.03800
C615        C  0.60769234  0.30599916  0.23211561    -0.17500
C616        C  0.69974774  0.30252671  0.23202282    -0.17200
C617        C  0.70321205  0.39663863  0.23235461    -0.17600
C618        C  0.60764513  0.30589079  0.26675510    -0.17600
C619        C  0.69985871  0.30232128  0.26656932    -0.17100
C620        C  0.70341870  0.39607555  0.26706235    -0.17500
C621        C  0.80140766  0.29731128  0.16894261     0.80000
N622        N  0.76257290  0.31104284  0.18349211    -0.78300
C623        C  0.73054879  0.28021635  0.21009925     0.82400
N624        N  0.73538176  0.23426734  0.21991417    -0.78200
C625        C  0.77998237  0.22611857  0.20982713     0.82500
N626        N  0.81260137  0.25707980  0.18332618    -0.80000
C627        C  0.79771963  0.29302890  0.33091754     0.80000
N628        N  0.76084471  0.30871157  0.31576398    -0.78300
C629        C  0.73096906  0.28000783  0.28823018     0.82400
N630        N  0.73700097  0.23529579  0.27773489    -0.78200
C631        C  0.78003671  0.22555414  0.28847800     0.82500
N632        N  0.81006230  0.25373939  0.31624782    -0.80000
C633        C  0.71170419  0.49684502  0.33421624     0.80000
N634        N  0.74992992  0.05106455  0.31729473    -0.78300
C635        C  0.77688716  0.05087298  0.28861953     0.82400
N636        N  0.76884693  0.99973388  0.27766550    -0.78200
C637        C  0.72605522  0.44789924  0.28963766     0.82500
N638        N  0.69770455  0.44616586  0.31820587    -0.80000
C639        C  0.70120020  0.99733351  0.16929824     0.80000
N640        N  0.74059738  0.04907614  0.18364505    -0.78300
C641        C  0.77295266  0.04970654  0.21003410     0.82400
N642        N  0.76731773  0.99878414  0.22006193    -0.78200
C643        C  0.72430029  0.44938912  0.21053248     0.82500
N644        N  0.69380292  0.44897463  0.18317676    -0.80000
C645        C  0.50284755  0.20584757  0.16826849     0.80000
N646        N  0.95084247  0.19311148  0.18060543    -0.78300
C647        C  0.94991648  0.22064407  0.20869972     0.82400
N648        N  0.50158750  0.26549680  0.22090736    -0.78200
C649        C  0.55427709  0.27423791  0.21022427     0.82500
N650        N  0.55516262  0.24502499  0.18290594    -0.80000
C651        C  0.50342485  0.20594763  0.33089040     0.80000
N652        N  0.55541810  0.24509179  0.31593191    -0.78300
C653        C  0.55431806  0.27465818  0.28883861     0.82400
N654        N  0.50157174  0.26661892  0.27870978    -0.78200
C655        C  0.94958586  0.22158595  0.28745833     0.82500
N656        N  0.94975419  0.19167880  0.31457950    -0.80000
O657        O  0.90423063  0.45622502  0.45924934    -0.82000
C658        C  0.59231753  0.00322834  0.04629361     0.97300
O659        O  0.57001530  0.46542416  0.02698347    -0.71100
O660        O  0.96229832  0.41267529  0.03870410    -0.74700
Al661      Al  0.49973143  0.43446540  0.49996033     1.49000
C662        C  0.91267715  0.40764559  0.04528180     0.92600
O663        O  0.95183865  0.04506084  0.03890658    -0.80900
O664        O  0.55076801  0.09238159  0.46033110    -0.74500
Al665      Al  0.92933159  0.49863159  0.99905265     1.90100
O666        O  0.54130838  0.10927823  0.02768139    -0.73600
O667        O  0.61057294  0.03994822  0.47153184    -0.73400
O668        O  0.59288541  0.04954971  0.03907918    -0.79100
O669        O  0.54272702  0.45273377  0.46031513    -0.77300
O670        O  0.50041932  0.00098239  0.49977442    -1.13400
O671        O  0.92963116  0.39121846  0.47182566    -0.72600
C672        C  0.90483838  0.41021820  0.45265270     0.98100
C673        C  0.49581750  0.09186150  0.04576949     0.94500
Al674      Al  0.56930616  0.06745734  0.49941548     1.55600
O675        O  0.89060777  0.42986515  0.02633429    -0.77200
C676        C  0.58974248  0.49919952  0.45353861     0.98700
C677        C  0.50475666  0.09466128  0.45371325     0.93500
O678        O  0.95297796  0.06716868  0.47046862    -0.82600
C679        C  0.50419151  0.17729494  0.36207899     0.01000
C680        C  0.95748686  0.16540896  0.38402111    -0.12200
C681        C  0.95514843  0.13850898  0.41420196     0.01900
C682        C  0.50391138  0.12526486  0.42318802    -0.00500
C683        C  0.54888623  0.13883113  0.39968269    -0.12200
C684        C  0.54922262  0.16413086  0.36940846     0.01700
H685        H  0.92503791  0.17865234  0.37892037     0.14700
H686        H  0.58330981  0.12805976  0.40445048     0.14700
C687        C  0.59436095  0.17244422  0.34575709     0.36400
C688        C  0.90867216  0.12901821  0.43723443     0.36300
N689        N  0.63038434  0.17814034  0.32694723    -0.44000
N690        N  0.87124725  0.12145699  0.45554604    -0.44000
C691        C  0.50270655  0.17757162  0.13674812    -0.00400
C692        C  0.95708097  0.16470136  0.11156597    -0.12200
C693        C  0.95498590  0.13785268  0.08140068     0.01900
C694        C  0.49900941  0.12460028  0.07572677    -0.00500
C695        C  0.54487199  0.13752880  0.09824026    -0.12200
C696        C  0.54663556  0.16300123  0.12876180     0.01700
H697        H  0.92092262  0.17215966  0.11805682     0.14700
H698        H  0.57795876  0.12525460  0.09255691     0.14700
C699        C  0.59121213  0.16933017  0.15222564     0.36400
C700        C  0.90480268  0.12124765  0.05986192     0.36300
N701        N  0.62649286  0.17342396  0.17107831    -0.44000
N702        N  0.86470204  0.10805413  0.04253741    -0.44000
C703        C  0.67199732  0.99747548  0.13787538    -0.00400
C704        C  0.70106708  0.04661718  0.11722589    -0.12200
C705        C  0.67692327  0.04903719  0.08686157     0.01900
C706        C  0.62294065  0.00116224  0.07633668    -0.00500
C707        C  0.62414072  0.45719036  0.08544765    -0.12200
C708        C  0.64936375  0.45275921  0.11516037     0.01700
H709        H  0.74324006  0.08334788  0.12462308     0.14700
H710        H  0.60232488  0.41929219  0.06964208     0.14700
C711        C  0.64660026  0.39799676  0.12206449     0.36400
C712        C  0.70919198  0.10064919  0.06676612     0.36300
N713        N  0.64406050  0.35383208  0.12711091    -0.44000
N714        N  0.73521922  0.14211039  0.05077589    -0.44000
C715        C  0.62506012  0.50044749  0.42458844    -0.00400
C716        C  0.62255041  0.44852739  0.41473622    -0.12200
C717        C  0.65123101  0.44599656  0.38603593     0.01900
C718        C  0.68286841  0.49642325  0.36611010    -0.00500
C719        C  0.63515008  0.94720407  0.37511702    -0.12200
C720        C  0.60535809  0.94375298  0.40442040     0.01700
H721        H  0.59776756  0.40945886  0.42953292     0.14700
H722        H  0.61773178  0.90895708  0.35954164     0.14700
C723        C  0.55456559  0.88790812  0.41256312     0.36400
C724        C  0.64752408  0.39108222  0.37838203     0.36300
N725        N  0.51426166  0.84284299  0.41887052    -0.44000
N726        N  0.64408092  0.34670881  0.37280323    -0.44000
C727        C  0.87845470  0.37975963  0.42149009    -0.00400
C728        C  0.83112398  0.32234194  0.42223008    -0.12200
C729        C  0.80457554  0.29315680  0.39281276     0.01900
C730        C  0.82645554  0.32120657  0.36215160    -0.00500
C731        C  0.87423105  0.37834993  0.36140509    -0.12200
C732        C  0.90046847  0.40771968  0.39077099     0.01700
H733        H  0.81402009  0.30087672  0.44579813     0.14700
H734        H  0.89097897  0.40001403  0.33784253     0.14700
C735        C  0.95133368  0.46568382  0.38875478     0.36400
C736        C  0.75332403  0.23554438  0.39470035     0.36300
N737        N  0.99239234  0.51188335  0.38705432    -0.44000
N738        N  0.71190849  0.18959249  0.39631918    -0.44000
C739        C  0.83097727  0.32618138  0.13778136    -0.00400
C740        C  0.79739449  0.33487709  0.11366836    -0.12200
C741        C  0.82207949  0.35991506  0.08307115     0.01900
C742        C  0.88206561  0.37735527  0.07622615    -0.00500
C743        C  0.91559781  0.36875692  0.10060663    -0.12200
C744        C  0.89082063  0.34367459  0.13112416     0.01700
H745        H  0.75111876  0.32100382  0.11853317     0.14700
H746        H  0.96208071  0.38298689  0.09622468     0.14700
C747        C  0.92887677  0.33959763  0.15566832     0.36400
C748        C  0.78415688  0.36578449  0.05920413     0.36300
N749        N  0.95992360  0.33709234  0.17524715    -0.44000
N750        N  0.75347306  0.37028010  0.04018051    -0.44000
C751        C  0.83193312  0.16439137  0.71804335     0.45200
H752        H  0.83199756  0.16456596  0.69059055    -0.03800
C753        C  0.83209091  0.16448570  0.78244708     0.45300
H754        H  0.83235160  0.16459093  0.80986784    -0.03800
C755        C  0.80379288  0.10292022  0.73293482    -0.17500
C756        C  0.89448088  0.19774833  0.73281319    -0.17200
C757        C  0.79826694  0.19285448  0.73306888    -0.17600
C758        C  0.80400490  0.10301406  0.76764392    -0.17600
C759        C  0.89447362  0.19811959  0.76743979    -0.17100
C760        C  0.79839394  0.19299424  0.76776822    -0.17500
C761        C  0.66977390  0.33549708  0.71791832     0.45200
H762        H  0.67008299  0.33522450  0.69050852    -0.03800
C763        C  0.66937476  0.33572706  0.78233935     0.45300
H764        H  0.66921843  0.33569742  0.80976350    -0.03800
C765        C  0.60697183  0.30608173  0.73267731    -0.17500
C766        C  0.69946029  0.30341063  0.73314467    -0.17200
C767        C  0.70241248  0.39703545  0.73258278    -0.17600
C768        C  0.60677575  0.30646168  0.76735334    -0.17600
C769        C  0.69920949  0.30337909  0.76774001    -0.17100
C770        C  0.70236627  0.39711091  0.76729030    -0.17500
C771        C  0.79639070  0.29296877  0.66853265     0.80000
N772        N  0.75952878  0.30881336  0.68362468    -0.78300
C773        C  0.72997411  0.28060932  0.71147589     0.82400
N774        N  0.73530031  0.23547898  0.72202737    -0.78200
C775        C  0.77792187  0.22526661  0.71115386     0.82500
N776        N  0.80812243  0.25341746  0.68341930    -0.80000
C777        C  0.79906495  0.29564577  0.83141881     0.80000
N778        N  0.76126565  0.31065005  0.81671421    -0.78300
C779        C  0.72972210  0.28066334  0.78981894     0.82400
N780        N  0.73457636  0.23490468  0.77982162    -0.78200
C781        C  0.77863645  0.22597856  0.78989880     0.82500
N782        N  0.81051327  0.25574225  0.81684734    -0.80000
C783        C  0.70933843  0.50009991  0.83255490     0.80000
N784        N  0.74843304  0.05056197  0.81863740    -0.78300
C785        C  0.77584056  0.05060913  0.79010515     0.82400
N786        N  0.76853002  0.99961855  0.77936986    -0.78200
C787        C  0.72481587  0.44947188  0.78938544     0.82500
N788        N  0.69534054  0.44884962  0.81724811    -0.80000
C789        C  0.71315553  0.99807830  0.66604966     0.80000
N790        N  0.74914568  0.04981373  0.68172972    -0.78300
C791        C  0.77549117  0.05022138  0.71072782     0.82400
N792        N  0.76741409  0.99933625  0.72208770    -0.78200
C793        C  0.72481613  0.44945344  0.71028157     0.82500
N794        N  0.69622408  0.44876784  0.68203698    -0.80000
C795        C  0.50250220  0.20573933  0.66846444     0.80000
N796        N  0.94874821  0.19332940  0.68271097    -0.78300
C797        C  0.94814449  0.22069408  0.71090427     0.82400
N798        N  0.50091818  0.26549248  0.72115653    -0.78200
C799        C  0.55363285  0.27410533  0.71065418     0.82500
N800        N  0.55465766  0.24496959  0.68330206    -0.80000
C801        C  0.50210597  0.20816006  0.83210218     0.80000
N802        N  0.55427669  0.24663227  0.81698071    -0.78300
C803        C  0.55331024  0.27539791  0.78943685     0.82400
N804        N  0.50058620  0.26685513  0.77893961    -0.78200
C805        C  0.94768011  0.22103352  0.78956111     0.82500
N806        N  0.94803126  0.18999744  0.81613822    -0.80000
O807        O  0.90797513  0.45678438  0.95919535    -0.82000
C808        C  0.59796401  0.00448673  0.54457347     0.97300
O809        O  0.57004337  0.46333966  0.52658298    -0.71100
O810        O  0.95666309  0.40883327  0.53827566    -0.74700
Al811      Al  0.50080044  0.43624200  0.99928159     1.49000
C812        C  0.90723361  0.40422012  0.54488481     0.92600
O813        O  0.94731197  0.04945699  0.53821284    -0.80900
O814        O  0.54898309  0.09235538  0.96066038    -0.74500
Al815      Al  0.92661133  0.49758513  0.49945116     1.90100
O816        O  0.54325707  0.10926883  0.52739354    -0.73600
O817        O  0.60872666  0.04007040  0.97250088    -0.73400
O818        O  0.59517243  0.04943096  0.53837650    -0.79100
O819        O  0.54509890  0.45636862  0.96013741    -0.77300
O820        O  0.49788036  0.00094495  0.00040658    -1.13400
O821        O  0.93609878  0.39387275  0.97190225    -0.72600
C822        C  0.90984517  0.41141947  0.95281651     0.98100
C823        C  0.49747228  0.09181374  0.54531619     0.94500
Al824      Al  0.56721274  0.06742291  0.99998761     1.55600
O825        O  0.88625124  0.42827389  0.52651397    -0.77200
C826        C  0.59089771  0.50364498  0.95305393     0.98700
C827        C  0.50335134  0.09544374  0.95420644     0.93500
O828        O  0.95739898  0.06437357  0.97144726    -0.82600
C829        C  0.50275974  0.17943677  0.86319874     0.01000
C830        C  0.95620493  0.15964337  0.88492930    -0.12200
C831        C  0.95499673  0.13216572  0.91473725     0.01900
C832        C  0.50278290  0.12634280  0.92378073    -0.00500
C833        C  0.54130091  0.13131579  0.89795620    -0.12200
C834        C  0.54135686  0.15713890  0.86787299     0.01700
H835        H  0.92269024  0.17160847  0.88031690     0.14700
H836        H  0.57048288  0.11333212  0.90084737     0.14700
C837        C  0.57887679  0.15692433  0.84159999     0.36400
C838        C  0.90748943  0.11959978  0.93769658     0.36300
N839        N  0.60857716  0.15622288  0.82050714    -0.44000
N840        N  0.86910512  0.10933170  0.95590055    -0.44000
C841        C  0.50267592  0.17752236  0.63663397    -0.00400
C842        C  0.95360624  0.16513744  0.61380402    -0.12200
C843        C  0.95097020  0.13894806  0.58333544     0.01900
C844        C  0.49945291  0.12484513  0.57514141    -0.00500
C845        C  0.55003530  0.14738557  0.59510107    -0.12200
C846        C  0.55165076  0.17227411  0.62580625     0.01700
H847        H  0.91730745  0.17201945  0.62089735     0.14700
H848        H  0.58734852  0.14249305  0.58750596     0.14700
C849        C  0.60205756  0.18675334  0.64655596     0.36400
C850        C  0.89980387  0.12181009  0.56252976     0.36300
N851        N  0.64235829  0.19664415  0.66294833    -0.44000
N852        N  0.85878842  0.10804191  0.54586189    -0.44000
C853        C  0.68708776  0.99832163  0.63321301    -0.00400
C854        C  0.69868530  0.05212591  0.62001444    -0.12200
C855        C  0.67292908  0.05564793  0.59047978     0.01900
C856        C  0.63334579  0.00419250  0.57332901    -0.00500
C857        C  0.62339725  0.45445198  0.58512814    -0.12200
C858        C  0.64990407  0.45059645  0.61444094     0.01700
H859        H  0.72761425  0.09220058  0.63296090     0.14700
H860        H  0.59687480  0.41521360  0.57092484     0.14700
C861        C  0.64350522  0.39468207  0.62257893     0.36400
C862        C  0.68867068  0.11309099  0.57867431     0.36300
N863        N  0.63834011  0.34964429  0.62844456    -0.44000
N864        N  0.70171747  0.15929921  0.56941952    -0.44000
C865        C  0.62550298  0.50557081  0.92358952    -0.00400
C866        C  0.62763447  0.45529229  0.91524135    -0.12200
C867        C  0.65536943  0.45251500  0.88623117     0.01900
C868        C  0.68063754  0.50058618  0.86425556    -0.00500
C869        C  0.63405373  0.94670247  0.87664266    -0.12200
C870        C  0.60420616  0.94345462  0.90591026     0.01700
H871        H  0.60763652  0.41784631  0.93162651     0.14700
H872        H  0.61676960  0.90830839  0.86119793     0.14700
C873        C  0.55320747  0.88777699  0.91405079     0.36400
C874        C  0.65857049  0.40036738  0.88057478     0.36300
N875        N  0.51263909  0.84291890  0.92040340    -0.44000
N876        N  0.66113627  0.35850263  0.87643435    -0.44000
C877        C  0.88325835  0.38037745  0.92187012    -0.00400
C878        C  0.82948561  0.32761223  0.92273501    -0.12200
C879        C  0.80158752  0.29943905  0.89333017     0.01900
C880        C  0.82836624  0.32360051  0.86261884    -0.00500
C881        C  0.88251672  0.37604589  0.86177401    -0.12200
C882        C  0.90989250  0.40477125  0.89113637     0.01700
H883        H  0.80858796  0.30927353  0.94631508     0.14700
H884        H  0.90293875  0.39490060  0.83817881     0.14700
C885        C  0.96518874  0.45933023  0.88923463     0.36400
C886        C  0.74473088  0.24663111  0.89513339     0.36300
N887        N  0.00935552  0.50312721  0.88776748    -0.44000
N888        N  0.69901383  0.20447913  0.89652883    -0.44000
C889        C  0.82475016  0.32007490  0.63674303    -0.00400
C890        C  0.79082891  0.32828878  0.61257051    -0.12200
C891        C  0.81552995  0.35357501  0.58192778     0.01900
C892        C  0.87588530  0.37229670  0.57533522    -0.00500
C893        C  0.90923606  0.36300983  0.59948138    -0.12200
C894        C  0.88442112  0.33721701  0.62981088     0.01700
H895        H  0.74449589  0.31405276  0.61746798     0.14700
H896        H  0.95575546  0.37740651  0.59511829     0.14700
C897        C  0.92248899  0.33207668  0.65388855     0.36400
C898        C  0.77734048  0.35795064  0.55761093     0.36300
N899        N  0.95360800  0.32858260  0.67300890    -0.44000
N900        N  0.74642706  0.36096175  0.53812466    -0.44000
C901        C  0.83020920  0.66507684  0.21948411     0.45200
H902        H  0.83029429  0.66543134  0.19202656    -0.03800
C903        C  0.83038520  0.66447675  0.28386739     0.45300
H904        H  0.83042490  0.66399172  0.31129183    -0.03800
C905        C  0.80324006  0.60372432  0.23400309    -0.17500
C906        C  0.89260275  0.69948513  0.23423849    -0.17200
C907        C  0.79501105  0.69166581  0.23459423    -0.17600
C908        C  0.80385023  0.60327364  0.26865338    -0.17600
C909        C  0.89274659  0.69997461  0.26886127    -0.17100
C910        C  0.79502247  0.69146968  0.26939435    -0.17500
C911        C  0.66598035  0.83315861  0.21852656     0.45200
H912        H  0.66566857  0.83273489  0.19109812    -0.03800
C913        C  0.66655546  0.83428909  0.28291169     0.45300
H914        H  0.66675896  0.83478671  0.31034876    -0.03800
C915        C  0.60358134  0.80542607  0.23363085    -0.17500
C916        C  0.69374924  0.79920614  0.23355070    -0.17200
C917        C  0.70070065  0.89488216  0.23292377    -0.17600
C918        C  0.60378498  0.80673190  0.26833527    -0.17600
C919        C  0.69369595  0.79942588  0.26827122    -0.17100
C920        C  0.70157427  0.89542866  0.26754723    -0.17500
C921        C  0.79134648  0.78941590  0.16924259     0.80000
N922        N  0.75294824  0.80390360  0.18373724    -0.78300
C923        C  0.72259051  0.77503120  0.21133372     0.82400
N924        N  0.72846902  0.73024296  0.22203645    -0.78200
C925        C  0.77306670  0.72214994  0.21211530     0.82500
N926        N  0.80398378  0.75099935  0.18469350    -0.80000
C927        C  0.78109475  0.78228879  0.33661809     0.80000
N928        N  0.74585850  0.79884780  0.32013325    -0.78300
C929        C  0.72120049  0.77421964  0.29078414     0.82400
N930        N  0.73007637  0.73181594  0.27960593    -0.78200
C931        C  0.77141532  0.72098723  0.29171101     0.82500
N932        N  0.79682605  0.74577861  0.32118106    -0.80000
C933        C  0.71393432  0.99970772  0.33326996     0.80000
N934        N  0.74841338  0.54888933  0.31904574    -0.78300
C935        C  0.77628980  0.55025560  0.29050013     0.82400
N936        N  0.76914514  0.49985683  0.27891798    -0.78200
C937        C  0.72607809  0.94838031  0.28929124     0.82500
N938        N  0.69926703  0.94825362  0.31801891    -0.80000
C939        C  0.70622930  0.50038712  0.16843867     0.80000
N940        N  0.74351635  0.55170106  0.18406338    -0.78300
C941        C  0.77359496  0.55168056  0.21147982     0.82400
N942        N  0.76796559  0.50085142  0.22129630    -0.78200
C943        C  0.72186547  0.94710259  0.21054875     0.82500
N944        N  0.68946054  0.94622290  0.18405475    -0.80000
C945        C  0.49805097  0.70457205  0.16983053     0.80000
N946        N  0.94575650  0.69115264  0.18507999    -0.78300
C947        C  0.94583799  0.72129442  0.21211491     0.82400
N948        N  0.49802215  0.76658002  0.22171113    -0.78200
C949        C  0.55015435  0.77292271  0.21183858     0.82500
N950        N  0.55055238  0.74254041  0.18486147    -0.80000
C951        C  0.49789915  0.71534143  0.33519648     0.80000
N952        N  0.55050695  0.75180089  0.31960545    -0.78300
C953        C  0.55023595  0.77799183  0.29072841     0.82400
N954        N  0.49785814  0.76885016  0.27934304    -0.78200
C955        C  0.94631860  0.72523578  0.29087653     0.82500
N956        N  0.94681571  0.69848718  0.31930483    -0.80000
O957        O  0.89856496  0.95531310  0.46255005    -0.82000
C958        C  0.59442866  0.50978451  0.04534646     0.97300
O959        O  0.56344332  0.95784351  0.02914210    -0.71100
O960        O  0.95782401  0.90776786  0.04068566    -0.74700
Al961      Al  0.49951419  0.93347419  0.49987083     1.49000
C962        C  0.90998896  0.90611216  0.04788777     0.92600
O963        O  0.94424542  0.54041052  0.03882193    -0.80900
O964        O  0.54291841  0.59353699  0.46035977    -0.74500
Al965      Al  0.93166085  0.99878702  0.00078970     1.90100
O966        O  0.53173314  0.60727441  0.02814152    -0.73600
O967        O  0.60640725  0.54417897  0.47102718    -0.73400
O968        O  0.59029324  0.55375653  0.03832704    -0.79100
O969        O  0.54255533  0.95047468  0.46066325    -0.77300
O970        O  0.49663811  0.50034889  0.49964975    -1.13400
O971        O  0.92391454  0.89080437  0.47536483    -0.72600
C972        C  0.89495618  0.90694861  0.45741015     0.98100
C973        C  0.48625864  0.58611723  0.04656511     0.94500
Al974      Al  0.56346768  0.56867344  0.49923933     1.55600
O975        O  0.89103579  0.93281994  0.03021585    -0.77200
C976        C  0.59141386  0.99463635  0.45396693     0.98700
C977        C  0.49515795  0.59288658  0.45420340     0.93500
O978        O  0.95075961  0.56575037  0.47283001    -0.82600
C979        C  0.49681488  0.68728871  0.36725599     0.01000
C980        C  0.94616519  0.63666224  0.37683212    -0.12200
C981        C  0.94313333  0.60750064  0.40617119     0.01900
C982        C  0.49272276  0.62629767  0.42558584    -0.00500
C983        C  0.54284998  0.68016369  0.41813911    -0.12200
C984        C  0.54500214  0.71122251  0.38965302     0.01700
H985        H  0.90697089  0.61927116  0.36137857     0.14700
H986        H  0.58054283  0.69817677  0.43475775     0.14700
C987        C  0.59641815  0.76814301  0.38490690     0.36400
C988        C  0.88797878  0.55532270  0.41398069     0.36300
N989        N  0.63763834  0.81387831  0.38155786    -0.44000
N990        N  0.84350174  0.51364408  0.41994273    -0.44000
C991        C  0.49659098  0.67491564  0.13830916    -0.00400
C992        C  0.94305403  0.62816182  0.12749943    -0.12200
C993        C  0.93844532  0.60024865  0.09742107     0.01900
C994        C  0.48713009  0.61705520  0.07754383    -0.00500
C995        C  0.53890496  0.66946465  0.08552478    -0.12200
C996        C  0.54390152  0.69849343  0.11528726     0.01700
H997        H  0.90354897  0.61257567  0.14265934     0.14700
H998        H  0.57590999  0.68829202  0.06836808     0.14700
C999        C  0.59689813  0.75387955  0.12055285     0.36400
C1000       C  0.88062695  0.55294350  0.08833803     0.36300
N1001       N  0.63889982  0.79864811  0.12476630    -0.44000
N1002       N  0.83410742  0.51521889  0.08125611    -0.44000
C1003       C  0.67730270  0.50124857  0.13667631    -0.00400
C1004       C  0.67976018  0.55338203  0.12699690    -0.12200
C1005       C  0.65496845  0.55793437  0.09724787     0.01900
C1006       C  0.62607326  0.50918074  0.07600819    -0.00500
C1007       C  0.59411955  0.95186465  0.09658495    -0.12200
C1008       C  0.61746720  0.94988107  0.12729530     0.01700
H1009       H  0.70114118  0.59130618  0.14280890     0.14700
H1010       H  0.55162279  0.91567625  0.08903308     0.14700
C1011       C  0.58186699  0.90005368  0.14792940     0.36400
C1012       C  0.66053092  0.61369809  0.08957757     0.36300
N1013       N  0.55169174  0.85991698  0.16401640    -0.44000
N1014       N  0.66541610  0.65859907  0.08364002    -0.44000
C1015       C  0.62545057  0.99365356  0.42470432    -0.00400
C1016       C  0.67786291  0.04465326  0.41577702    -0.12200
C1017       C  0.70851832  0.04753873  0.38674117     0.01900
C1018       C  0.68597898  0.99890763  0.36540359    -0.00500
C1019       C  0.68679091  0.54875124  0.37677493    -0.12200
C1020       C  0.65828946  0.55117277  0.40546585     0.01700
H1021       H  0.69492357  0.08281972  0.43138765     0.14700
H1022       H  0.71092174  0.58813995  0.36218945     0.14700
C1023       C  0.66124046  0.60566701  0.41332084     0.36400
C1024       C  0.76353941  0.10057454  0.38020793     0.36300
N1025       N  0.66377057  0.64950293  0.41929483    -0.44000
N1026       N  0.80761578  0.14326134  0.37525416    -0.44000
C1027       C  0.85877509  0.87014916  0.42917480    -0.00400
C1028       C  0.86447378  0.82226996  0.41943028    -0.12200
C1029       C  0.83816968  0.79141093  0.39029728     0.01900
C1030       C  0.80593727  0.80899548  0.36960559    -0.00500
C1031       C  0.79642691  0.85395233  0.38088702    -0.12200
C1032       C  0.82145566  0.88376552  0.41029185     0.01700
H1033       H  0.89042311  0.80921834  0.43438454     0.14700
H1034       H  0.76971154  0.86686410  0.36651225     0.14700
C1035       C  0.80693253  0.92747728  0.42037263     0.36400
C1036       C  0.84424855  0.74134763  0.38306239     0.36300
N1037       N  0.79470568  0.96206558  0.42840184    -0.44000
N1038       N  0.84898127  0.70097262  0.37779265    -0.44000
C1039       C  0.82200269  0.81821297  0.13811165    -0.00400
C1040       C  0.78913350  0.82449120  0.11256928    -0.12200
C1041       C  0.81606898  0.85165523  0.08266121     0.01900
C1042       C  0.87757248  0.87386877  0.07805876    -0.00500
C1043       C  0.91011374  0.86639447  0.10347688    -0.12200
C1044       C  0.88305787  0.83896816  0.13320362     0.01700
H1045       H  0.74192042  0.80705917  0.11578490     0.14700
H1046       H  0.95743602  0.88339352  0.10052315     0.14700
C1047       C  0.91968639  0.83559693  0.15888755     0.36400
C1048       C  0.77909433  0.85403944  0.05682338     0.36300
N1049       N  0.94885496  0.83315141  0.17967445    -0.44000
N1050       N  0.74940779  0.85565694  0.03604185    -0.44000
C1051       C  0.83122478  0.66581165  0.71763444     0.45200
H1052       H  0.83111471  0.66615751  0.69017775    -0.03800
C1053       C  0.83153846  0.66529684  0.78199788     0.45300
H1054       H  0.83166173  0.66489231  0.80940124    -0.03800
C1055       C  0.80430784  0.60435527  0.73238268    -0.17500
C1056       C  0.89374126  0.70017412  0.73231747    -0.17200
C1057       C  0.79635615  0.69280050  0.73286947    -0.17600
C1058       C  0.80464278  0.60419477  0.76703067    -0.17600
C1059       C  0.89382760  0.70021382  0.76693266    -0.17100
C1060       C  0.79626709  0.69229263  0.76756190    -0.17500
C1061       C  0.66690973  0.83390687  0.71873582     0.45200
H1062       H  0.66756150  0.83376253  0.69134209    -0.03800
C1063       C  0.66596645  0.83388878  0.78310180     0.45300
H1064       H  0.66554768  0.83380324  0.81051865    -0.03800
C1065       C  0.60404588  0.80570699  0.73311677    -0.17500
C1066       C  0.69463466  0.80015883  0.73400981    -0.17200
C1067       C  0.70107777  0.89537476  0.73346557    -0.17600
C1068       C  0.60351114  0.80633965  0.76787790    -0.17600
C1069       C  0.69397908  0.79966248  0.76857881    -0.17100
C1070       C  0.70099900  0.89545998  0.76820440    -0.17500
C1071       C  0.79543929  0.79590202  0.67040743     0.80000
N1072       N  0.75690827  0.80936064  0.68542826    -0.78300
C1073       C  0.72564920  0.77839872  0.71214112     0.82400
N1074       N  0.73086903  0.73263229  0.72163207    -0.78200
C1075       C  0.77541177  0.72488451  0.71114965     0.82500
N1076       N  0.80737884  0.75594271  0.68448197    -0.80000
C1077       C  0.78816942  0.78631164  0.83415821     0.80000
N1078       N  0.75100023  0.80177315  0.81887425    -0.78300
C1079       C  0.72274457  0.77496704  0.79060762     0.82400
N1080       N  0.73014758  0.73147930  0.77936374    -0.78200
C1081       C  0.77356633  0.72222436  0.79006711     0.82500
N1082       N  0.80214945  0.74902113  0.81840299    -0.80000
C1083       C  0.71244473  0.99912306  0.83452056     0.80000
N1084       N  0.74688964  0.55159305  0.81717365    -0.78300
C1085       C  0.77586835  0.55178959  0.78928127     0.82400
N1086       N  0.76899726  0.50090688  0.77871075    -0.78200
C1087       C  0.72518196  0.94810394  0.79047418     0.82500
N1088       N  0.69776252  0.94769963  0.81908875    -0.80000
C1089       C  0.71031963  0.50004670  0.66648632     0.80000
N1090       N  0.74731917  0.55158690  0.68196064    -0.78300
C1091       C  0.77545385  0.55186365  0.71021108     0.82400
N1092       N  0.76816165  0.50097247  0.72112593    -0.78200
C1093       C  0.72484256  0.94774993  0.71097021     0.82500
N1094       N  0.69810348  0.94691307  0.68200446    -0.80000
C1095       C  0.49978654  0.70705931  0.66770435     0.80000
N1096       N  0.94716399  0.69216139  0.68325195    -0.78300
C1097       C  0.94711142  0.72245423  0.71017446     0.82400
N1098       N  0.49823808  0.76485508  0.72121322    -0.78200
C1099       C  0.55097221  0.77394919  0.71067337     0.82500
N1100       N  0.55209866  0.74569292  0.68283989    -0.80000
C1101       C  0.49727487  0.71218626  0.83359316     0.80000
N1102       N  0.54985325  0.74938338  0.81829827    -0.78300
C1103       C  0.54972049  0.77680754  0.78993110     0.82400
N1104       N  0.49742237  0.76826779  0.77875638    -0.78200
C1105       C  0.94725893  0.72413618  0.78886453     0.82500
N1106       N  0.94757839  0.69643060  0.81697665    -0.80000
O1107       O  0.90417573  0.95325493  0.96264641    -0.82000
C1108       C  0.59598646  0.50799422  0.54459633     0.97300
O1109       O  0.56924800  0.95932302  0.52711470    -0.71100
O1110       O  0.95496449  0.91314343  0.54101213    -0.74700
Al1111     Al  0.49624466  0.93299217  0.00064338     1.49000
C1112       C  0.90757434  0.91219180  0.54852052     0.92600
O1113       O  0.94314953  0.53977380  0.53929834    -0.80900
O1114       O  0.54126777  0.59519086  0.96083808    -0.74500
Al1115     Al  0.92714782  0.00235691  0.50039869     1.90100
O1116       O  0.53510798  0.60755207  0.52734017    -0.73600
O1117       O  0.60672223  0.54840786  0.97063213    -0.73400
O1118       O  0.59131417  0.55192383  0.53826200    -0.79100
O1119       O  0.54142451  0.95029784  0.96218276    -0.77300
O1120       O  0.49625327  0.50121518  0.99924669    -1.13400
O1121       O  0.93043571  0.88879980  0.97398373    -0.72600
C1122       C  0.90220475  0.90606890  0.95618959     0.98100
C1123       C  0.48934590  0.58917005  0.54524352     0.94500
Al1124     Al  0.56218649  0.57046925  0.99943780     1.55600
O1125       O  0.88748439  0.93752350  0.53050028    -0.77200
C1126       C  0.59003164  0.99453652  0.95529172     0.98700
C1127       C  0.49321923  0.59373804  0.95456792     0.93500
O1128       O  0.95196417  0.56598559  0.97176899    -0.82600
C1129       C  0.49613489  0.68456956  0.86581338     0.01000
C1130       C  0.94900131  0.63103055  0.87305424    -0.12200
C1131       C  0.94616373  0.60235324  0.90262701     0.01900
C1132       C  0.49060309  0.62642124  0.92560823    -0.00500
C1133       C  0.54148594  0.67913550  0.91733079    -0.12200
C1134       C  0.54470918  0.70846322  0.88796474     0.01700
H1135       H  0.91159852  0.61098185  0.85628039     0.14700
H1136       H  0.57929536  0.69735951  0.93386548     0.14700
C1137       C  0.59816108  0.76331811  0.88191101     0.36400
C1138       C  0.89387525  0.54660992  0.90873977     0.36300
N1139       N  0.64119258  0.80725634  0.87743850    -0.44000
N1140       N  0.85155777  0.50201262  0.91305078    -0.44000
C1141       C  0.49914428  0.67914597  0.63562733    -0.00400
C1142       C  0.94675945  0.65277488  0.61707255    -0.12200
C1143       C  0.94272624  0.62428208  0.58725793     0.01900
C1144       C  0.49204931  0.62244590  0.57507082    -0.00500
C1145       C  0.54237960  0.64308123  0.59514465    -0.12200
C1146       C  0.54624568  0.67074041  0.62516262     0.01700
H1147       H  0.90924537  0.65708990  0.62492087     0.14700
H1148       H  0.57798761  0.63541852  0.58792739     0.14700
C1149       C  0.59763354  0.68628212  0.64529583     0.36400
C1150       C  0.88871143  0.60166392  0.56827006     0.36300
N1151       N  0.63903421  0.69774364  0.66108708    -0.44000
N1152       N  0.84540431  0.58347898  0.55307042    -0.44000
C1153       C  0.68276898  0.50076520  0.63422967    -0.00400
C1154       C  0.69107388  0.55431710  0.62243822    -0.12200
C1155       C  0.66607849  0.55840411  0.59271030     0.01900
C1156       C  0.62994936  0.50766674  0.57411917    -0.00500
C1157       C  0.62460230  0.95073440  0.58525748    -0.12200
C1158       C  0.65130375  0.94726531  0.61456409     0.01700
H1159       H  0.71746539  0.59382633  0.63643269     0.14700
H1160       H  0.59560325  0.91099253  0.57202760     0.14700
C1161       C  0.64102520  0.89047195  0.62408752     0.36400
C1162       C  0.68002051  0.61580384  0.58183070     0.36300
N1163       N  0.63239413  0.84449016  0.63090593    -0.44000
N1164       N  0.69194835  0.66204212  0.57321359    -0.44000
C1165       C  0.62420436  0.99344830  0.92609762    -0.00400
C1166       C  0.67647670  0.04448782  0.91704550    -0.12200
C1167       C  0.70711495  0.04727470  0.88800858     0.01900
C1168       C  0.68468408  0.99842451  0.86676010    -0.00500
C1169       C  0.67944590  0.55132538  0.87305941    -0.12200
C1170       C  0.65247957  0.55428756  0.90233625     0.01700
H1171       H  0.69338914  0.08281275  0.93252466     0.14700
H1172       H  0.69875988  0.58884151  0.85673660     0.14700
C1173       C  0.65105944  0.60704618  0.90891709     0.36400
C1174       C  0.76198021  0.10051909  0.88146771     0.36300
N1175       N  0.65062318  0.64980541  0.91376599    -0.44000
N1176       N  0.80595022  0.14342168  0.87669679    -0.44000
C1177       C  0.86851511  0.87215032  0.92667207    -0.00400
C1178       C  0.87692130  0.82681932  0.91517320    -0.12200
C1179       C  0.85121036  0.79761337  0.88558688     0.01900
C1180       C  0.81603433  0.81384468  0.86641256    -0.00500
C1181       C  0.80592226  0.85772635  0.87873540    -0.12200
C1182       C  0.83116126  0.88648209  0.90830652     0.01700
H1183       H  0.90452793  0.81450029  0.92912512     0.14700
H1184       H  0.77827385  0.87044188  0.86512424     0.14700
C1185       C  0.81714516  0.93029346  0.91886468     0.36400
C1186       C  0.86161825  0.75092718  0.87632282     0.36300
N1187       N  0.80562758  0.96526074  0.92712303    -0.44000
N1188       N  0.87032459  0.71345114  0.86960158    -0.44000
C1189       C  0.82492190  0.82600210  0.63958334    -0.00400
C1190       C  0.79104173  0.83450023  0.61552547    -0.12200
C1191       C  0.81636051  0.86197096  0.58550131     0.01900
C1192       C  0.87703660  0.88197234  0.57934604    -0.00500
C1193       C  0.91083998  0.87378816  0.60370774    -0.12200
C1194       C  0.88547351  0.84619427  0.63357210     0.01700
H1195       H  0.74426106  0.81864774  0.61997605     0.14700
H1196       H  0.95778901  0.88990569  0.59971634     0.14700
C1197       C  0.92342297  0.84200937  0.65814131     0.36400
C1198       C  0.77849484  0.86717202  0.56129237     0.36300
N1199       N  0.95421190  0.83924262  0.67779088    -0.44000
N1200       N  0.74802690  0.87116516  0.54189996    -0.44000
loop_ 
_geom_bond_atom_site_label_1 
_geom_bond_atom_site_label_2 
_geom_bond_distance 
_geom_bond_site_symmetry_2 
_ccdc_geom_bond_type 
C1            H2   1.112       .  S
C1            C7   1.536       .  S
C1            C6   1.535       .  S
C1            C5   1.535       .  S
C3            H4   1.110       .  S
C3            C9   1.534       .  S
C3            C8   1.538       .  S
C3           C10   1.535       .  S
C5            C8   1.402       .  D
C5           C41   1.506       .  S
C6            C9   1.402       .  D
C6           C47   1.502       .  S
C7           C10   1.405       .  D
C7           C25   1.504       .  S
C8           C35   1.504       .  S
C9           C55   1.502       .  S
C10          C31   1.509       .  S
C11          H12   1.110       .  S
C11          C17   1.539       .  S
C11          C16   1.536       .  S
C11          C15   1.535       .  S
C13          H14   1.109       .  S
C13          C19   1.531       .  S
C13          C18   1.537       .  S
C13          C20   1.533       .  S
C15          C18   1.404       .  D
C15          C49   1.509       .  S
C16          C19   1.401       .  D
C16          C23   1.497       .  S
C17          C20   1.405       .  D
C17          C43   1.507       .  S
C18          C53   1.502       .  S
C19          C29   1.506       .  S
C20          C37   1.506       .  S
C21          N22   1.366       .  A
C21          N26   1.368       .  A
C21         C139   1.473       .  S
N22          C23   1.355       .  A
C23          N24   1.342       .  A
N24          C25   1.340       .  A
C25          N26   1.357       .  A
C27          N28   1.368       .  A
C27          N32   1.369       .  A
C27         C130   1.472       .  S
N28          C29   1.359       .  A
C29          N30   1.343       .  A
N30          C31   1.342       .  A
C31          N32   1.360       .  A
C33          N38   1.368       .  A
C33         N334   1.367       .  A
C33         C118   1.487       .  S
N34          C35   1.357       .  A
N34         C333   1.368   1_545  A
C35          N36   1.342       .  A
N36         C337   1.342   1_545  A
C37          N38   1.358       .  A
C37         N336   1.343       .  A
C39          N40   1.369   1_565  A
C39         N344   1.369       .  A
C39         C103   1.489       .  S
N40          C41   1.357       .  A
C41          N42   1.343   1_545  A
N42         C343   1.342       .  A
C43          N44   1.360       .  A
C43         N342   1.340       .  A
N44         C339   1.371       .  A
C45          N50   1.371       .  A
C45         N646   1.372   1_455  A
C45          C91   1.490       .  S
N46          C47   1.357       .  A
N46         C645   1.368       .  A
C47         N648   1.341       .  A
N48          C49   1.339       .  A
N48         C647   1.340   1_455  A
C49          N50   1.359       .  A
C51          N52   1.367       .  A
C51         N656   1.364   1_455  A
C51          C79   1.474       .  S
N52          C53   1.357       .  A
C53          N54   1.343       .  A
N54         C655   1.343   1_455  A
C55          N56   1.357       .  A
C55         N654   1.343       .  A
N56         C651   1.367       .  A
O57          C72   1.257       .  A
O57        Al215   1.885       .  S
C58         C106   1.472       .  S
C58          O68   1.256       .  A
C58         O359   1.266   1_545  A
O59         C358   1.263       .  A
O59        Al211   1.919   1_554  S
O60          C62   1.256       .  A
O60        Al811   1.863   1_554  S
Al61         O69   1.868   1_655  S
Al61        O209   1.927   1_655  S
Al61        O810   1.866       .  S
Al61        O671   1.929       .  S
Al61        O370   1.783       .  S
C62         C142   1.482       .  S
C62          O75   1.264       .  A
O63         C673   1.258       .  A
O63        Al365   1.881       .  S
O64          C77   1.256   1_455  A
O64         Al74   1.861       .  S
Al65         O75   1.927   1_556  S
Al65        O207   1.882       .  S
Al65        O363   1.888   1_556  S
Al65        O528   1.922       .  S
Al65       O1120   1.782       .  S
O66          C73   1.264   1_455  A
O66        Al224   1.925   1_554  S
O67         C376   1.268   1_545  A
O67         Al74   1.936       .  S
O68        Al224   1.871   1_554  S
O69          C76   1.257       .  A
O70         Al74   1.781   1_655  S
O70        Al361   1.781   1_545  S
O70       Al1115   1.783       .  S
O71          C72   1.263       .  A
O71        Al661   1.930       .  S
C72         C127   1.474       .  S
C73          C94   1.475   1_655  S
C73         O663   1.257       .  A
Al74        O216   1.923       .  S
Al74        O218   1.870       .  S
C76         C115   1.476       .  S
C76         O367   1.265       .  A
C77          C82   1.481       .  S
C77         O678   1.265       .  A
O78         C677   1.263       .  A
O78        Al515   1.921       .  S
C79          C84   1.408       .  A
C79         C680   1.405   1_455  A
C80          C81   1.400       .  A
C80         C679   1.405       .  A
C80          H85   1.083       .  S
C81         C682   1.415       .  A
C81          C88   1.444       .  S
C82          C83   1.408   1_655  A
C82         C681   1.413       .  A
C83          C84   1.394       .  A
C83          H86   1.085       .  S
C84          C87   1.444       .  S
C87          N89   1.157       .  T
C88          N90   1.157       .  T
C91          C96   1.417       .  A
C91         C692   1.408   1_455  A
C92          C93   1.400       .  A
C92         C691   1.406       .  A
C92          H97   1.085       .  S
C93         C694   1.409       .  A
C93         C100   1.444       .  S
C94          C95   1.399       .  A
C94         C693   1.410   1_455  A
C95          C96   1.399       .  A
C95          H98   1.086       .  S
C96          C99   1.440       .  S
C99         N101   1.156       .  T
C100        N102   1.157       .  T
C103        C104   1.409   1_565  A
C103        C408   1.417       .  A
C104        C105   1.400       .  A
C104        H109   1.084       .  S
C105        C106   1.411       .  A
C105        C112   1.445       .  S
C106        C407   1.397   1_545  A
C107        C108   1.400       .  A
C107        C406   1.405       .  A
C107        H110   1.085       .  S
C108        C403   1.419       .  A
C108        C111   1.444       .  S
C111        N113   1.157       .  T
C112        N114   1.157       .  T
C115        C116   1.403       .  A
C115        C420   1.410       .  A
C116        C117   1.397       .  A
C116        H121   1.085       .  S
C117        C118   1.418       .  A
C117        C124   1.444       .  S
C118        C419   1.409       .  A
C119        C120   1.397       .  A
C119        C418   1.403       .  A
C119        H122   1.085       .  S
C120        C415   1.420       .  A
C120        C123   1.445       .  S
C123        N125   1.157       .  T
C124        N126   1.157       .  T
C127        C128   1.402       .  A
C127        C132   1.413       .  A
C128        C129   1.403       .  A
C128        H133   1.084       .  S
C129        C130   1.411       .  A
C129        C136   1.444       .  S
C130        C131   1.400       .  A
C131        C132   1.401       .  A
C131        H134   1.085       .  S
C132        C135   1.445       .  S
C135        N137   1.157       .  T
C136        N138   1.157       .  T
C139        C140   1.405       .  A
C139        C144   1.409       .  A
C140        C141   1.401       .  A
C140        H145   1.086       .  S
C141        C142   1.414       .  A
C141        C148   1.444       .  S
C142        C143   1.407       .  A
C143        C144   1.393       .  A
C143        H146   1.085       .  S
C144        C147   1.443       .  S
C147        N149   1.157       .  T
C148        N150   1.157       .  T
C151        H152   1.112       .  S
C151        C157   1.538       .  S
C151        C156   1.534       .  S
C151        C155   1.536       .  S
C153        H154   1.110       .  S
C153        C159   1.536       .  S
C153        C158   1.538       .  S
C153        C160   1.535       .  S
C155        C158   1.405       .  D
C155        C191   1.513       .  S
C156        C159   1.404       .  D
C156        C197   1.506       .  S
C157        C160   1.404       .  D
C157        C175   1.502       .  S
C158        C185   1.505       .  S
C159        C205   1.503       .  S
C160        C181   1.511       .  S
C161        H162   1.110       .  S
C161        C167   1.535       .  S
C161        C166   1.534       .  S
C161        C165   1.533       .  S
C163        H164   1.110       .  S
C163        C169   1.535       .  S
C163        C168   1.536       .  S
C163        C170   1.538       .  S
C165        C168   1.404       .  D
C165        C199   1.504       .  S
C166        C169   1.398       .  D
C166        C173   1.496       .  S
C167        C170   1.407       .  D
C167        C193   1.510       .  S
C168        C203   1.503       .  S
C169        C179   1.505       .  S
C170        C187   1.507       .  S
C171        N172   1.363       .  A
C171        N176   1.367       .  A
C171        C289   1.472       .  S
N172        C173   1.353       .  A
C173        N174   1.344       .  A
N174        C175   1.344       .  A
C175        N176   1.358       .  A
C177        N178   1.367       .  A
C177        N182   1.369       .  A
C177        C280   1.467       .  S
N178        C179   1.356       .  A
C179        N180   1.342       .  A
N180        C181   1.341       .  A
C181        N182   1.360       .  A
C183        N484   1.366       .  A
C183        N188   1.370       .  A
C183        C268   1.486       .  S
N184        C483   1.370   1_545  A
N184        C185   1.358       .  A
C185        N186   1.338       .  A
N186        C487   1.338   1_545  A
C187        N486   1.341       .  A
C187        N188   1.359       .  A
C189        N190   1.372       .  A
C189        N494   1.369   1_545  A
C189        C253   1.495       .  S
N190        C191   1.358       .  A
C191        N192   1.342       .  A
N192        C493   1.342   1_545  A
C193        N492   1.340       .  A
C193        N194   1.361       .  A
N194        C489   1.372       .  A
C195        N796   1.370   1_455  A
C195        N200   1.371       .  A
C195        C241   1.488       .  S
N196        C795   1.371       .  A
N196        C197   1.360       .  A
C197        N798   1.341       .  A
N198        C797   1.338       .  A
N198        C199   1.337   1_655  A
C199        N200   1.359       .  A
C201        N202   1.367       .  A
C201        N806   1.365   1_455  A
C201        C229   1.477       .  S
N202        C203   1.357       .  A
C203        N204   1.344   1_455  A
N204        C805   1.345       .  A
C205        N804   1.343       .  A
C205        N206   1.358       .  A
N206        C801   1.367       .  A
O207        C222   1.258       .  A
C208        C256   1.488       .  S
C208        O218   1.254       .  A
C208        O509   1.267   1_545  A
O209        C508   1.264       .  A
O210        C212   1.256       .  A
O210       Al661   1.865       .  S
Al211       O660   1.870   1_456  S
Al211       O219   1.865       .  S
Al211       O821   1.931   1_455  S
Al211       O520   1.782       .  S
C212        C292   1.483       .  S
C212        O225   1.265       .  A
O213        C823   1.257       .  A
O213       Al515   1.877       .  S
O214        C227   1.258       .  A
O214       Al224   1.870       .  S
Al215       O513   1.895       .  S
Al215       O378   1.916       .  S
Al215       O225   1.928       .  S
Al215       O970   1.784       .  S
O216        C223   1.264   1_455  A
O217        C526   1.265   1_545  A
O217       Al224   1.929       .  S
O219        C226   1.257       .  A
O220       Al511   1.779       .  S
O220       Al965   1.782   1_455  S
O220       Al224   1.784   1_564  S
O221        C222   1.263       .  A
O221       Al811   1.928       .  S
C222        C277   1.469       .  S
C223        C244   1.478       .  S
C223        O813   1.256       .  A
C226        C265   1.474       .  S
C226        O517   1.266       .  A
C227        C232   1.485   1_455  S
C227        O828   1.266   1_455  A
O228        C827   1.263       .  A
O228       Al365   1.925   1_556  S
C229        C830   1.404   1_455  A
C229        C234   1.409       .  A
C230        C829   1.404       .  A
C230        C231   1.402       .  A
C230        H235   1.085       .  S
C231        C832   1.415       .  A
C231        C238   1.444       .  S
C232        C831   1.415       .  A
C232        C233   1.408   1_655  A
C233        C234   1.395       .  A
C233        H236   1.084       .  S
C234        C237   1.443       .  S
C237        N239   1.156       .  T
C238        N240   1.157       .  T
C241        C842   1.408   1_455  A
C241        C246   1.416       .  A
C242        C841   1.408       .  A
C242        C243   1.402       .  A
C242        H247   1.085       .  S
C243        C844   1.412       .  A
C243        C250   1.445       .  S
C244        C843   1.410       .  A
C244        C245   1.400   1_655  A
C245        C246   1.399       .  A
C245        H248   1.084       .  S
C246        C249   1.442       .  S
C249        N251   1.156       .  T
C250        N252   1.157       .  T
C253        C254   1.407       .  A
C253        C558   1.420   1_545  A
C254        C255   1.398       .  A
C254        H259   1.084       .  S
C255        C256   1.417       .  A
C255        C262   1.446       .  S
C256        C557   1.403   1_545  A
C257        C556   1.404       .  A
C257        C258   1.402       .  A
C257        H260   1.085       .  S
C258        C553   1.420       .  A
C258        C261   1.443       .  S
C261        N263   1.157       .  T
C262        N264   1.158       .  T
C265        C266   1.403       .  A
C265        C570   1.410       .  A
C266        C267   1.396       .  A
C266        H271   1.085       .  S
C267        C268   1.416       .  A
C267        C274   1.445       .  S
C268        C569   1.410       .  A
C269        C568   1.404       .  A
C269        C270   1.395       .  A
C269        H272   1.084       .  S
C270        C565   1.418       .  A
C270        C273   1.445       .  S
C273        N275   1.157       .  T
C274        N276   1.157       .  T
C277        C278   1.402       .  A
C277        C282   1.411       .  A
C278        C279   1.403       .  A
C278        H283   1.085       .  S
C279        C280   1.411       .  A
C279        C286   1.443       .  S
C280        C281   1.399       .  A
C281        C282   1.396       .  A
C281        H284   1.085       .  S
C282        C285   1.445       .  S
C285        N287   1.157       .  T
C286        N288   1.157       .  T
C289        C290   1.404       .  A
C289        C294   1.408       .  A
C290        C291   1.398       .  A
C290        H295   1.086       .  S
C291        C292   1.413       .  A
C291        C298   1.444       .  S
C292        C293   1.410       .  A
C293        C294   1.396       .  A
C293        H296   1.085       .  S
C294        C297   1.445       .  S
C297        N299   1.157       .  T
C298        N300   1.157       .  T
C301        H302   1.109       .  S
C301        C307   1.534       .  S
C301        C306   1.533       .  S
C301        C305   1.532       .  S
C303        H304   1.110       .  S
C303        C309   1.534       .  S
C303        C308   1.540       .  S
C303        C310   1.536       .  S
C305        C308   1.402       .  D
C305        C341   1.507       .  S
C306        C309   1.403       .  D
C306        C347   1.497       .  S
C307        C310   1.407       .  D
C307        C325   1.508       .  S
C308        C335   1.503       .  S
C309        C355   1.505       .  S
C310        C331   1.509       .  S
C311        H312   1.110       .  S
C311        C317   1.540       .  S
C311        C316   1.533       .  S
C311        C315   1.535       .  S
C313        H314   1.110       .  S
C313        C319   1.537       .  S
C313        C318   1.534       .  S
C313        C320   1.536       .  S
C315        C318   1.404       .  D
C315        C349   1.503       .  S
C316        C319   1.403       .  D
C316        C323   1.503       .  S
C317        C320   1.403       .  D
C317        C343   1.508       .  S
C318        C353   1.505       .  S
C319        C329   1.503       .  S
C320        C337   1.508       .  S
C321        N322   1.370       .  A
C321        N326   1.371       .  A
C321        C439   1.496       .  S
N322        C323   1.357       .  A
C323        N324   1.338       .  A
N324        C325   1.338       .  A
C325        N326   1.360       .  A
C327        N328   1.368       .  A
C327        N332   1.370       .  A
C327        C430   1.492       .  S
N328        C329   1.354       .  A
C329        N330   1.341       .  A
N330        C331   1.342       .  A
C331        N332   1.362       .  A
C333        N338   1.370       .  A
C333        C418   1.487       .  S
N334        C335   1.354       .  A
C335        N336   1.343       .  A
C337        N338   1.357       .  A
C339        N340   1.370       .  A
C339        C403   1.495       .  S
N340        C341   1.356       .  A
C341        N342   1.339       .  A
C343        N344   1.357       .  A
C345        N946   1.369       .  A
C345        N350   1.370   1_655  A
C345        C391   1.495       .  S
N346        C945   1.366       .  A
N346        C347   1.355       .  A
C347        N948   1.339       .  A
N348        C947   1.339       .  A
N348        C349   1.339   1_655  A
C349        N350   1.361       .  A
C351        N352   1.369   1_655  A
C351        N956   1.367       .  A
C351        C379   1.487       .  S
N352        C353   1.358       .  A
C353        N354   1.342   1_455  A
N354        C955   1.341       .  A
C355        N954   1.340       .  A
C355        N356   1.355       .  A
N356        C951   1.368       .  A
O357        C372   1.256       .  A
O357       Al515   1.874   1_565  S
C358        C406   1.487       .  S
C358        O368   1.257       .  A
O359       Al511   1.922       .  S
O360        C362   1.255       .  A
O360      Al1111   1.870       .  S
Al361       O509   1.936   1_655  S
Al361      O1110   1.861       .  S
Al361       O369   1.871   1_655  S
Al361       O971   1.933       .  S
C362        C442   1.485       .  S
C362        O375   1.264       .  A
O363        C973   1.259       .  A
O364        C377   1.256   1_455  A
O364       Al374   1.874       .  S
Al365       O507   1.879   1_544  S
Al365       O375   1.930   1_545  S
Al365       O820   1.785       .  S
O366        C373   1.266   1_455  A
O366       Al524   1.923   1_554  S
O367       Al374   1.924       .  S
O368       Al524   1.884   1_554  S
O369        C376   1.256       .  A
O370       Al815   1.783       .  S
O370       Al374   1.779   1_655  S
O371        C372   1.266       .  A
O371       Al961   1.933       .  S
C372        C427   1.491       .  S
C373        C394   1.491       .  S
C373        O963   1.258       .  A
Al374       O516   1.915       .  S
Al374       O518   1.877       .  S
C376        C415   1.490       .  S
C377        C382   1.476       .  S
C377        O978   1.262       .  A
O378        C977   1.262       .  A
C379        C980   1.408       .  A
C379        C384   1.417   1_655  A
C380        C979   1.408       .  A
C380        C381   1.398       .  A
C380        H385   1.084       .  S
C381        C982   1.412       .  A
C381        C388   1.445       .  S
C382        C981   1.411       .  A
C382        C383   1.403   1_655  A
C383        C384   1.398       .  A
C383        H386   1.085       .  S
C384        C387   1.445       .  S
C387        N389   1.157       .  T
C388        N390   1.157       .  T
C391        C992   1.408       .  A
C391        C396   1.418   1_655  A
C392        C991   1.406       .  A
C392        C393   1.400       .  A
C392        H397   1.085       .  S
C393        C994   1.418       .  A
C393        C400   1.445       .  S
C394        C993   1.417       .  A
C394        C395   1.406   1_655  A
C395        C396   1.400       .  A
C395        H398   1.085       .  S
C396        C399   1.443       .  S
C399        N401   1.157       .  T
C400        N402   1.158       .  T
C403        C404   1.409       .  A
C404        C405   1.398       .  A
C404        H409   1.084       .  S
C405        C406   1.414       .  A
C405        C412   1.446       .  S
C407        C408   1.393       .  A
C407        H410   1.085       .  S
C408        C411   1.437       .  S
C411        N413   1.154       .  T
C412        N414   1.158       .  T
C415        C416   1.405   1_565  A
C416        C417   1.401       .  A
C416        H421   1.084       .  S
C417        C418   1.416   1_545  A
C417        C424   1.444       .  S
C419        C420   1.397       .  A
C419        H422   1.085       .  S
C420        C423   1.444       .  S
C423        N425   1.157       .  T
C424        N426   1.157       .  T
C427        C428   1.407       .  A
C427        C432   1.418       .  A
C428        C429   1.403       .  A
C428        H433   1.084       .  S
C429        C430   1.417       .  A
C429        C436   1.444       .  S
C430        C431   1.406       .  A
C431        C432   1.396       .  A
C431        H434   1.085       .  S
C432        C435   1.446       .  S
C435        N437   1.157       .  T
C436        N438   1.157       .  T
C439        C440   1.411       .  A
C439        C444   1.419       .  A
C440        C441   1.400       .  A
C440        H445   1.084       .  S
C441        C442   1.412       .  A
C441        C448   1.444       .  S
C442        C443   1.405       .  A
C443        C444   1.399       .  A
C443        H446   1.086       .  S
C444        C447   1.444       .  S
C447        N449   1.157       .  T
C448        N450   1.157       .  T
C451        H452   1.112       .  S
C451        C457   1.538       .  S
C451        C456   1.536       .  S
C451        C455   1.534       .  S
C453        H454   1.111       .  S
C453        C459   1.530       .  S
C453        C458   1.537       .  S
C453        C460   1.532       .  S
C455        C458   1.403       .  D
C455        C491   1.509       .  S
C456        C459   1.402       .  D
C456        C497   1.499       .  S
C457        C460   1.405       .  D
C457        C475   1.503       .  S
C458        C485   1.501       .  S
C459        C505   1.502       .  S
C460        C481   1.508       .  S
C461        H462   1.109       .  S
C461        C467   1.538       .  S
C461        C466   1.534       .  S
C461        C465   1.535       .  S
C463        H464   1.111       .  S
C463        C469   1.531       .  S
C463        C468   1.534       .  S
C463        C470   1.536       .  S
C465        C468   1.406       .  D
C465        C499   1.509       .  S
C466        C469   1.399       .  D
C466        C473   1.495       .  S
C467        C470   1.405       .  D
C467        C493   1.509       .  S
C468        C503   1.503       .  S
C469        C479   1.503       .  S
C470        C487   1.505       .  S
C471        N472   1.367       .  A
C471        N476   1.369       .  A
C471        C589   1.481       .  S
N472        C473   1.356       .  A
C473        N474   1.340       .  A
N474        C475   1.339       .  A
C475        N476   1.358       .  A
C477        N478   1.367       .  A
C477        N482   1.370       .  A
C477        C580   1.490       .  S
N478        C479   1.355       .  A
C479        N480   1.343       .  A
N480        C481   1.343       .  A
C481        N482   1.362       .  A
C483        N488   1.370       .  A
C483        C568   1.485       .  S
N484        C485   1.353       .  A
C485        N486   1.340       .  A
C487        N488   1.355       .  A
C489        N490   1.372       .  A
C489        C553   1.498       .  S
N490        C491   1.357       .  A
C491        N492   1.339       .  A
C493        N494   1.358       .  A
C495       N1096   1.367       .  A
C495        N500   1.372   1_655  A
C495        C541   1.491       .  S
N496       C1095   1.369       .  A
N496        C497   1.357       .  A
C497       N1098   1.338       .  A
N498       C1097   1.342       .  A
N498        C499   1.342   1_655  A
C499        N500   1.362       .  A
C501        N502   1.369       .  A
C501       N1106   1.367   1_455  A
C501        C529   1.488   1_455  S
N502        C503   1.359       .  A
C503        N504   1.340   1_455  A
N504       C1105   1.339       .  A
C505       N1104   1.341       .  A
C505        N506   1.355       .  A
N506       C1101   1.367       .  A
O507        C522   1.257       .  A
C508        C556   1.488       .  S
C508        O518   1.255       .  A
O510        C512   1.257       .  A
O510       Al961   1.860       .  S
Al511       O960   1.873   1_455  S
Al511       O519   1.870   1_554  S
Al511      O1121   1.933   1_454  S
C512        C592   1.484       .  S
C512        O525   1.264       .  A
O513       C1123   1.260       .  A
O514        C527   1.257   1_455  A
O514       Al524   1.877       .  S
Al515       O525   1.926   1_545  S
Al515       O670   1.783       .  S
O516        C523   1.265   1_455  A
O517       Al524   1.927       .  S
O519        C526   1.254       .  A
O520       Al665   1.781   1_455  S
O520       Al524   1.779       .  S
O521        C522   1.266       .  A
O521      Al1111   1.926   1_556  S
C522        C577   1.492       .  S
C523        C544   1.477       .  S
C523       O1113   1.260       .  A
C526        C565   1.487       .  S
C527        C532   1.478       .  S
C527       O1128   1.263       .  A
O528       C1127   1.262       .  A
C529       C1130   1.408       .  A
C529        C534   1.416   1_655  A
C530       C1129   1.408       .  A
C530        C531   1.399       .  A
C530        H535   1.084       .  S
C531       C1132   1.412       .  A
C531        C538   1.445       .  S
C532       C1131   1.412       .  A
C532        C533   1.403   1_655  A
C533        C534   1.400       .  A
C533        H536   1.085       .  S
C534        C537   1.444       .  S
C537        N539   1.157       .  T
C538        N540   1.157       .  T
C541       C1142   1.410       .  A
C541        C546   1.415   1_655  A
C542       C1141   1.412       .  A
C542        C543   1.404       .  A
C542        H547   1.084       .  S
C543       C1144   1.408       .  A
C543        C550   1.444       .  S
C544       C1143   1.409       .  A
C544        C545   1.401   1_655  A
C545        C546   1.398       .  A
C545        H548   1.085       .  S
C546        C549   1.439       .  S
C549        N551   1.155       .  T
C550        N552   1.157       .  T
C553        C554   1.409       .  A
C554        C555   1.399       .  A
C554        H559   1.084       .  S
C555        C556   1.415       .  A
C555        C562   1.446       .  S
C557        C558   1.401       .  A
C557        H560   1.085       .  S
C558        C561   1.444       .  S
C561        N563   1.157       .  T
C562        N564   1.158       .  T
C565        C566   1.405   1_565  A
C566        C567   1.400       .  A
C566        H571   1.084       .  S
C567        C568   1.416   1_545  A
C567        C574   1.444       .  S
C569        C570   1.398       .  A
C569        H572   1.084       .  S
C570        C573   1.445       .  S
C573        N575   1.157       .  T
C574        N576   1.157       .  T
C577        C578   1.408       .  A
C577        C582   1.419       .  A
C578        C579   1.404       .  A
C578        H583   1.084       .  S
C579        C580   1.416       .  A
C579        C586   1.445       .  S
C580        C581   1.405       .  A
C581        C582   1.397       .  A
C581        H584   1.085       .  S
C582        C585   1.446       .  S
C585        N587   1.157   1_565  T
C586        N588   1.158       .  T
C589        C590   1.407       .  A
C589        C594   1.410       .  A
C590        C591   1.402       .  A
C590        H595   1.084       .  S
C591        C592   1.415       .  A
C591        C598   1.444       .  S
C592        C593   1.405       .  A
C593        C594   1.391       .  A
C593        H596   1.085       .  S
C594        C597   1.439       .  S
C597        N599   1.155       .  T
C598        N600   1.157       .  T
C601        H602   1.112       .  S
C601        C607   1.541       .  S
C601        C606   1.536       .  S
C601        C605   1.540       .  S
C603        H604   1.110       .  S
C603        C609   1.533       .  S
C603        C608   1.537       .  S
C603        C610   1.532       .  S
C605        C608   1.401       .  D
C605        C641   1.508       .  S
C606        C609   1.403       .  D
C606        C647   1.508       .  S
C607        C610   1.405       .  D
C607        C625   1.504       .  S
C608        C635   1.505       .  S
C609        C655   1.497       .  S
C610        C631   1.509       .  S
C611        H612   1.110       .  S
C611        C617   1.538       .  S
C611        C616   1.536       .  S
C611        C615   1.534       .  S
C613        H614   1.110       .  S
C613        C619   1.533       .  S
C613        C618   1.536       .  S
C613        C620   1.533       .  S
C615        C618   1.403       .  D
C615        C649   1.504       .  S
C616        C619   1.399       .  D
C616        C623   1.501       .  S
C617        C620   1.405       .  D
C617        C643   1.505       .  S
C618        C653   1.502       .  S
C619        C629   1.500       .  S
C620        C637   1.507       .  S
C621        N622   1.366       .  A
C621        N626   1.367       .  A
C621        C739   1.475       .  S
N622        C623   1.355       .  A
C623        N624   1.345       .  A
N624        C625   1.344       .  A
C625        N626   1.358       .  A
C627        N628   1.366       .  A
C627        N632   1.370       .  A
C627        C730   1.471       .  S
N628        C629   1.357       .  A
C629        N630   1.341       .  A
N630        C631   1.340       .  A
C631        N632   1.362       .  A
C633        N934   1.369       .  A
C633        N638   1.369       .  A
C633        C718   1.490       .  S
N634        C933   1.368   1_545  A
N634        C635   1.357       .  A
C635        N636   1.342   1_545  A
N636        C937   1.341       .  A
C637        N936   1.341       .  A
C637        N638   1.359       .  A
C639        N640   1.368   1_565  A
C639        N944   1.368       .  A
C639        C703   1.483       .  S
N640        C641   1.355       .  A
C641        N642   1.345   1_545  A
N642        C943   1.345       .  A
C643        N942   1.341       .  A
C643        N644   1.360       .  A
N644        C939   1.370       .  A
C645        N650   1.369       .  A
C645        C691   1.481       .  S
N646        C647   1.360       .  A
N648        C649   1.341       .  A
C649        N650   1.359       .  A
C651        N652   1.366       .  A
C651        C679   1.478       .  S
N652        C653   1.356       .  A
C653        N654   1.343       .  A
C655        N656   1.354       .  A
O657        C672   1.257       .  A
O657       Al815   1.888       .  S
C658        C706   1.470       .  S
C658        O668   1.255       .  A
C658        O959   1.264   1_545  A
O659        C958   1.265       .  A
O659       Al811   1.927   1_554  S
O660        C662   1.257       .  A
Al661       O809   1.923       .  S
Al661       O669   1.874       .  S
Al661       O970   1.789       .  S
C662        C742   1.485       .  S
C662        O675   1.265       .  A
O663       Al965   1.879   1_545  S
O664        C677   1.256       .  A
O664       Al674   1.868       .  S
Al665       O807   1.881       .  S
Al665       O963   1.885   1_556  S
Al665      O1128   1.923       .  S
Al665       O675   1.928   1_556  S
O666        C673   1.265       .  A
O666       Al824   1.922   1_554  S
O667        C976   1.267   1_545  A
O667       Al674   1.934       .  S
O668       Al824   1.868   1_554  S
O669        C676   1.258       .  A
O670       Al961   1.779   1_545  S
O670       Al674   1.779       .  S
O671        C672   1.263       .  A
C672        C727   1.473       .  S
C673        C694   1.471       .  S
Al674       O816   1.930       .  S
Al674       O818   1.868       .  S
C676        C715   1.478       .  S
C676        O967   1.265       .  A
C677        C682   1.483       .  S
O678      Al1115   1.926       .  S
C679        C684   1.410       .  A
C680        C681   1.399       .  A
C680        H685   1.083       .  S
C681        C688   1.444       .  S
C682        C683   1.407       .  A
C683        C684   1.394       .  A
C683        H686   1.084       .  S
C684        C687   1.443       .  S
C687        N689   1.156       .  T
C688        N690   1.157       .  T
C691        C696   1.414       .  A
C692        C693   1.403       .  A
C692        H697   1.085       .  S
C693        C700   1.445       .  S
C694        C695   1.402       .  A
C695        C696   1.400       .  A
C695        H698   1.085       .  S
C696        C699   1.443       .  S
C699        N701   1.157       .  T
C700        N702   1.157       .  T
C703        C704   1.407   1_565  A
C703       C1008   1.416       .  A
C704        C705   1.397       .  A
C704        H709   1.085       .  S
C705        C706   1.410       .  A
C705        C712   1.445       .  S
C706       C1007   1.400   1_545  A
C707       C1006   1.406       .  A
C707        C708   1.403       .  A
C707        H710   1.084       .  S
C708       C1003   1.419       .  A
C708        C711   1.444       .  S
C711        N713   1.157       .  T
C712        N714   1.157       .  T
C715        C716   1.404       .  A
C715       C1020   1.410       .  A
C716        C717   1.400       .  A
C716        H721   1.085       .  S
C717        C718   1.418       .  A
C717        C724   1.445       .  S
C718       C1019   1.409       .  A
C719       C1018   1.403       .  A
C719        C720   1.394       .  A
C719        H722   1.085       .  S
C720       C1015   1.419       .  A
C720        C723   1.446       .  S
C723        N725   1.157       .  T
C724        N726   1.158       .  T
C727        C728   1.401       .  A
C727        C732   1.413       .  A
C728        C729   1.402       .  A
C728        H733   1.085       .  S
C729        C730   1.411       .  A
C729        C736   1.443       .  S
C730        C731   1.400       .  A
C731        C732   1.400       .  A
C731        H734   1.085       .  S
C732        C735   1.445       .  S
C735        N737   1.157       .  T
C736        N738   1.157       .  T
C739        C740   1.404       .  A
C739        C744   1.409       .  A
C740        C741   1.399       .  A
C740        H745   1.086       .  S
C741        C742   1.415       .  A
C741        C748   1.444       .  S
C742        C743   1.409       .  A
C743        C744   1.397       .  A
C743        H746   1.085       .  S
C744        C747   1.444       .  S
C747        N749   1.157       .  T
C748        N750   1.157       .  T
C751        H752   1.112       .  S
C751        C757   1.538       .  S
C751        C756   1.534       .  S
C751        C755   1.536       .  S
C753        H754   1.110       .  S
C753        C759   1.532       .  S
C753        C758   1.539       .  S
C753        C760   1.534       .  S
C755        C758   1.405       .  D
C755        C791   1.511       .  S
C756        C759   1.402       .  D
C756        C797   1.500       .  S
C757        C760   1.405       .  D
C757        C775   1.502       .  S
C758        C785   1.507       .  S
C759        C805   1.500       .  S
C760        C781   1.511       .  S
C761        H762   1.110       .  S
C761        C767   1.536       .  S
C761        C766   1.534       .  S
C761        C765   1.535       .  S
C763        H764   1.110       .  S
C763        C769   1.534       .  S
C763        C768   1.537       .  S
C763        C770   1.536       .  S
C765        C768   1.404       .  D
C765        C799   1.506       .  S
C766        C769   1.401       .  D
C766        C773   1.498       .  S
C767        C770   1.405       .  D
C767        C793   1.507       .  S
C768        C803   1.504       .  S
C769        C779   1.506       .  S
C770        C787   1.506       .  S
C771        N772   1.368       .  A
C771        N776   1.369       .  A
C771        C889   1.477       .  S
N772        C773   1.357       .  A
C773        N774   1.341       .  A
N774        C775   1.339       .  A
C775        N776   1.358       .  A
C777        N778   1.367       .  A
C777        N782   1.369       .  A
C777        C880   1.472       .  S
N778        C779   1.358       .  A
C779        N780   1.344       .  A
N780        C781   1.344       .  A
C781        N782   1.361       .  A
C783       N1084   1.367       .  A
C783        N788   1.369       .  A
C783        C868   1.487       .  S
N784       C1083   1.368   1_545  A
N784        C785   1.356       .  A
C785        N786   1.342   1_545  A
N786       C1087   1.341       .  A
C787       N1086   1.341       .  A
C787        N788   1.359       .  A
C789        N790   1.373   1_565  A
C789       N1094   1.370       .  A
C789        C853   1.494       .  S
N790        C791   1.357       .  A
C791        N792   1.338   1_545  A
N792       C1093   1.338       .  A
C793       N1092   1.340       .  A
C793        N794   1.360       .  A
N794       C1089   1.371       .  A
C795        N800   1.370       .  A
C795        C841   1.493       .  S
N796        C797   1.358       .  A
N798        C799   1.340       .  A
C799        N800   1.360       .  A
C801        N802   1.367       .  A
C801        C829   1.475       .  S
N802        C803   1.357       .  A
C803        N804   1.342       .  A
C805        N806   1.356       .  A
O807        C822   1.255       .  A
C808        C856   1.487       .  S
C808        O818   1.255       .  A
C808       O1109   1.266   1_545  A
O809       C1108   1.264       .  A
O810        C812   1.257       .  A
Al811       O819   1.871       .  S
Al811      O1120   1.785       .  S
C812        C892   1.485       .  S
C812        O825   1.266       .  A
O813      Al1115   1.880       .  S
O814        C827   1.257       .  A
O814       Al824   1.873       .  S
Al815      O1113   1.889       .  S
Al815       O978   1.919       .  S
Al815       O825   1.935       .  S
O816        C823   1.267       .  A
O817       C1126   1.264   1_545  A
O817       Al824   1.927       .  S
O819        C826   1.257       .  A
O820      Al1111   1.781   1_545  S
O820       Al824   1.785   1_554  S
O821        C822   1.263       .  A
C822        C877   1.471       .  S
C823        C844   1.479       .  S
C826        C865   1.479       .  S
C826       O1117   1.266       .  A
C827        C832   1.482       .  S
O828       Al965   1.927   1_546  S
C829        C834   1.409       .  A
C830        C831   1.401       .  A
C830        H835   1.082       .  S
C831        C838   1.444       .  S
C832        C833   1.407       .  A
C833        C834   1.396       .  A
C833        H836   1.085       .  S
C834        C837   1.444       .  S
C837        N839   1.157       .  T
C838        N840   1.157       .  T
C841        C846   1.417       .  A
C842        C843   1.402       .  A
C842        H847   1.085       .  S
C843        C850   1.444       .  S
C844        C845   1.400       .  A
C845        C846   1.400       .  A
C845        H848   1.085       .  S
C846        C849   1.439       .  S
C849        N851   1.155       .  T
C850        N852   1.157       .  T
C853        C854   1.407   1_565  A
C853       C1158   1.420       .  A
C854        C855   1.397       .  A
C854        H859   1.084       .  S
C855        C856   1.417       .  A
C855        C862   1.446       .  S
C856       C1157   1.403   1_545  A
C857       C1156   1.406       .  A
C857        C858   1.402       .  A
C857        H860   1.085       .  S
C858       C1153   1.419       .  A
C858        C861   1.444       .  S
C861        N863   1.157       .  T
C862        N864   1.158       .  T
C865        C866   1.404       .  A
C865       C1170   1.411       .  A
C866        C867   1.399       .  A
C866        H871   1.085       .  S
C867        C868   1.416       .  A
C867        C874   1.445       .  S
C868       C1169   1.408       .  A
C869       C1168   1.403       .  A
C869        C870   1.395       .  A
C869        H872   1.085       .  S
C870       C1165   1.419       .  A
C870        C873   1.446       .  S
C873        N875   1.157       .  T
C874        N876   1.158       .  T
C877        C878   1.400       .  A
C877        C882   1.412       .  A
C878        C879   1.402       .  A
C878        H883   1.085       .  S
C879        C880   1.411       .  A
C879        C886   1.444       .  S
C880        C881   1.401       .  A
C881        C882   1.402       .  A
C881        H884   1.085       .  S
C882        C885   1.445       .  S
C885        N887   1.157   1_655  T
C886        N888   1.157       .  T
C889        C890   1.405       .  A
C889        C894   1.409       .  A
C890        C891   1.402       .  A
C890        H895   1.085       .  S
C891        C892   1.414       .  A
C891        C898   1.444       .  S
C892        C893   1.408       .  A
C893        C894   1.395       .  A
C893        H896   1.085       .  S
C894        C897   1.444       .  S
C897        N899   1.157       .  T
C898        N900   1.157       .  T
C901        H902   1.112       .  S
C901        C907   1.534       .  S
C901        C906   1.532       .  S
C901        C905   1.530       .  S
C903        H904   1.110       .  S
C903        C909   1.535       .  S
C903        C908   1.542       .  S
C903        C910   1.535       .  S
C905        C908   1.403       .  D
C905        C941   1.509       .  S
C906        C909   1.402       .  D
C906        C947   1.499       .  S
C907        C910   1.409       .  D
C907        C925   1.505       .  S
C908        C935   1.503       .  S
C909        C955   1.502       .  S
C910        C931   1.512       .  S
C911        H912   1.111       .  S
C911        C917   1.538       .  S
C911        C916   1.533       .  S
C911        C915   1.533       .  S
C913        H914   1.111       .  S
C913        C919   1.535       .  S
C913        C918   1.536       .  S
C913        C920   1.538       .  S
C915        C918   1.406       .  D
C915        C949   1.504       .  S
C916        C919   1.406       .  D
C916        C923   1.504       .  S
C917        C920   1.402       .  D
C917        C943   1.508       .  S
C918        C953   1.509       .  S
C919        C929   1.505       .  S
C920        C937   1.506       .  S
C921        N922   1.368       .  A
C921        N926   1.367       .  A
C921       C1039   1.481       .  S
N922        C923   1.360       .  A
C923        N924   1.342       .  A
N924        C925   1.341       .  A
C925        N926   1.358       .  A
C927        N928   1.371       .  A
C927        N932   1.376       .  A
C927       C1030   1.501       .  S
N928        C929   1.355       .  A
C929        N930   1.336       .  A
N930        C931   1.336       .  A
C931        N932   1.365       .  A
C933        N938   1.369       .  A
C933       C1018   1.485       .  S
N934        C935   1.354       .  A
C935        N936   1.340       .  A
C937        N938   1.355       .  A
C939        N940   1.371       .  A
C939       C1003   1.496       .  S
N940        C941   1.359       .  A
C941        N942   1.340       .  A
C943        N944   1.358       .  A
C945        N950   1.371       .  A
C945        C991   1.491       .  S
N946        C947   1.356       .  A
N948        C949   1.340       .  A
C949        N950   1.362       .  A
C951        N952   1.371       .  A
C951        C979   1.488       .  S
N952        C953   1.360       .  A
C953        N954   1.341       .  A
C955        N956   1.354       .  A
O957        C972   1.256       .  A
O957      Al1115   1.882   1_565  S
C958       C1006   1.494       .  S
C958        O968   1.255       .  A
O959      Al1111   1.917       .  S
O960        C962   1.256       .  A
Al961      O1109   1.934       .  S
Al961       O969   1.862       .  S
C962       C1042   1.486       .  S
C962        O975   1.266       .  A
O964        C977   1.258       .  A
O964       Al974   1.883       .  S
Al965      O1107   1.872   1_554  S
Al965       O975   1.934       .  S
O966        C973   1.266       .  A
O966      Al1124   1.925   1_554  S
O967       Al974   1.923       .  S
O968      Al1124   1.879   1_554  S
O969        C976   1.254       .  A
O970       Al974   1.778       .  S
O971        C972   1.265       .  A
C972       C1027   1.495       .  S
C973        C994   1.494       .  S
Al974      O1116   1.914       .  S
Al974      O1118   1.881       .  S
C976       C1015   1.486       .  S
C977        C982   1.478       .  S
C979        C984   1.416       .  A
C980        C981   1.397       .  A
C980        H985   1.084       .  S
C981        C988   1.445       .  S
C982        C983   1.403       .  A
C983        C984   1.401       .  A
C983        H986   1.085       .  S
C984        C987   1.444       .  S
C987        N989   1.157       .  T
C988        N990   1.157       .  T
C991        C996   1.414       .  A
C992        C993   1.400       .  A
C992        H997   1.085       .  S
C993       C1000   1.445       .  S
C994        C995   1.408       .  A
C995        C996   1.402       .  A
C995        H998   1.084       .  S
C996        C999   1.443       .  S
C999       N1001   1.157       .  T
C1000      N1002   1.158       .  T
C1003      C1004   1.407       .  A
C1004      C1005   1.400       .  A
C1004      H1009   1.084       .  S
C1005      C1006   1.419       .  A
C1005      C1012   1.445       .  S
C1007      C1008   1.397       .  A
C1007      H1010   1.086       .  S
C1008      C1011   1.440       .  S
C1011      N1013   1.155       .  T
C1012      N1014   1.157       .  T
C1015      C1016   1.405   1_565  A
C1016      C1017   1.400       .  A
C1016      H1021   1.084       .  S
C1017      C1018   1.416   1_545  A
C1017      C1024   1.443       .  S
C1019      C1020   1.396       .  A
C1019      H1022   1.084       .  S
C1020      C1023   1.445       .  S
C1023      N1025   1.157       .  T
C1024      N1026   1.157       .  T
C1027      C1028   1.407       .  A
C1027      C1032   1.416       .  A
C1028      C1029   1.406       .  A
C1028      H1033   1.084       .  S
C1029      C1030   1.418       .  A
C1029      C1036   1.444       .  S
C1030      C1031   1.410       .  A
C1031      C1032   1.399       .  A
C1031      H1034   1.084       .  S
C1032      C1035   1.446       .  S
C1035      N1037   1.158       .  T
C1036      N1038   1.157       .  T
C1039      C1040   1.404       .  A
C1039      C1044   1.410       .  A
C1040      C1041   1.402       .  A
C1040      H1045   1.082       .  S
C1041      C1042   1.413       .  A
C1041      C1048   1.444       .  S
C1042      C1043   1.408       .  A
C1043      C1044   1.399       .  A
C1043      H1046   1.085       .  S
C1044      C1047   1.443       .  S
C1047      N1049   1.157       .  T
C1048      N1050   1.157       .  T
C1051      H1052   1.112       .  S
C1051      C1057   1.537       .  S
C1051      C1056   1.533       .  S
C1051      C1055   1.536       .  S
C1053      H1054   1.110       .  S
C1053      C1059   1.533       .  S
C1053      C1058   1.535       .  S
C1053      C1060   1.533       .  S
C1055      C1058   1.403       .  D
C1055      C1091   1.507       .  S
C1056      C1059   1.402       .  D
C1056      C1097   1.502       .  S
C1057      C1060   1.405       .  D
C1057      C1075   1.501       .  S
C1058      C1085   1.503       .  S
C1059      C1105   1.499       .  S
C1060      C1081   1.509       .  S
C1061      H1062   1.109       .  S
C1061      C1067   1.537       .  S
C1061      C1066   1.531       .  S
C1061      C1065   1.531       .  S
C1063      H1064   1.110       .  S
C1063      C1069   1.537       .  S
C1063      C1068   1.539       .  S
C1063      C1070   1.539       .  S
C1065      C1068   1.408       .  D
C1065      C1099   1.512       .  S
C1066      C1069   1.400       .  D
C1066      C1073   1.494       .  S
C1067      C1070   1.407       .  D
C1067      C1093   1.509       .  S
C1068      C1103   1.506       .  S
C1069      C1079   1.507       .  S
C1070      C1087   1.513       .  S
C1071      N1072   1.363       .  A
C1071      N1076   1.367       .  A
C1071      C1189   1.471       .  S
N1072      C1073   1.354       .  A
C1073      N1074   1.342       .  A
N1074      C1075   1.342       .  A
C1075      N1076   1.359       .  A
C1077      N1078   1.371       .  A
C1077      N1082   1.370       .  A
C1077      C1180   1.497       .  S
N1078      C1079   1.356       .  A
C1079      N1080   1.341       .  A
N1080      C1081   1.341       .  A
C1081      N1082   1.361       .  A
C1083      N1088   1.371       .  A
C1083      C1168   1.487       .  S
N1084      C1085   1.355       .  A
C1085      N1086   1.341       .  A
C1087      N1088   1.357       .  A
C1089      N1090   1.371       .  A
C1089      C1153   1.495       .  S
N1090      C1091   1.356       .  A
C1091      N1092   1.340       .  A
C1093      N1094   1.358       .  A
C1095      N1100   1.374       .  A
C1095      C1141   1.492       .  S
N1096      C1097   1.356       .  A
N1098      C1099   1.337       .  A
C1099      N1100   1.363       .  A
C1101      N1102   1.369       .  A
C1101      C1129   1.488       .  S
N1102      C1103   1.359       .  A
C1103      N1104   1.341       .  A
C1105      N1106   1.356       .  A
O1107      C1122   1.255       .  A
C1108      C1156   1.489       .  S
C1108      O1118   1.256       .  A
O1110      C1112   1.257       .  A
Al1111     O1119   1.863   1_554  S
C1112      C1192   1.479       .  S
C1112      O1125   1.267       .  A
O1114      C1127   1.256       .  A
O1114     Al1124   1.876       .  S
Al1115     O1125   1.930   1_545  S
O1116      C1123   1.263       .  A
O1117     Al1124   1.929       .  S
O1119      C1126   1.253       .  A
O1120     Al1124   1.780       .  S
O1121      C1122   1.266       .  A
C1122      C1177   1.492       .  S
C1123      C1144   1.478       .  S
C1126      C1165   1.487       .  S
C1127      C1132   1.478       .  S
C1129      C1134   1.417       .  A
C1130      C1131   1.399       .  A
C1130      H1135   1.085       .  S
C1131      C1138   1.444       .  S
C1132      C1133   1.403       .  A
C1133      C1134   1.399       .  A
C1133      H1136   1.085       .  S
C1134      C1137   1.445       .  S
C1137      N1139   1.157       .  T
C1138      N1140   1.157       .  T
C1141      C1146   1.414       .  A
C1142      C1143   1.402       .  A
C1142      H1147   1.084       .  S
C1143      C1150   1.444       .  S
C1144      C1145   1.400       .  A
C1145      C1146   1.399       .  A
C1145      H1148   1.082       .  S
C1146      C1149   1.440       .  S
C1149      N1151   1.155       .  T
C1150      N1152   1.157       .  T
C1153      C1154   1.408       .  A
C1154      C1155   1.398       .  A
C1154      H1159   1.084       .  S
C1155      C1156   1.416       .  A
C1155      C1162   1.445       .  S
C1157      C1158   1.401       .  A
C1157      H1160   1.085       .  S
C1158      C1161   1.444       .  S
C1161      N1163   1.157       .  T
C1162      N1164   1.158       .  T
C1165      C1166   1.405   1_565  A
C1166      C1167   1.400       .  A
C1166      H1171   1.085       .  S
C1167      C1168   1.418   1_545  A
C1167      C1174   1.444       .  S
C1169      C1170   1.399       .  A
C1169      H1172   1.085       .  S
C1170      C1173   1.443       .  S
C1173      N1175   1.157       .  T
C1174      N1176   1.157       .  T
C1177      C1178   1.405       .  A
C1177      C1182   1.417       .  A
C1178      C1179   1.404       .  A
C1178      H1183   1.084       .  S
C1179      C1180   1.420       .  A
C1179      C1186   1.443       .  S
C1180      C1181   1.407       .  A
C1181      C1182   1.397       .  A
C1181      H1184   1.084       .  S
C1182      C1185   1.446       .  S
C1185      N1187   1.157       .  T
C1186      N1188   1.157       .  T
C1189      C1190   1.405       .  A
C1189      C1194   1.407       .  A
C1190      C1191   1.399       .  A
C1190      H1195   1.085       .  S
C1191      C1192   1.412       .  A
C1191      C1198   1.444       .  S
C1192      C1193   1.408       .  A
C1193      C1194   1.395       .  A
C1193      H1196   1.085       .  S
C1194      C1197   1.444       .  S
C1197      N1199   1.157       .  T
C1198      N1200   1.157       .  T
