geometry optimzed in LAMMPS
_audit_creation_date              2020-11-30 
_audit_creation_method            'lammps2cif' 
_symmetry_space_group_name_H-M    'P1' 
_symmetry_Int_Tables_number       1 
_symmetry_cell_setting            triclinic 
loop_ 
_symmetry_equiv_pos_as_xyz 
  x,y,z 
_cell_length_a                    43.42434705 
_cell_length_b                    43.523604551956325 
_cell_length_c                    87.0131197911587 
_cell_angle_alpha                 89.96417870657466 
_cell_angle_beta                  90.07809416357351 
_cell_angle_gamma                 90.06160946327553 
loop_ 
_atom_site_label 
_atom_site_type_symbol 
_atom_site_fract_x 
_atom_site_fract_y 
_atom_site_fract_z 
_atom_site_charge 
O1          O  0.06046083  0.49025245  0.71285674    -0.72400
O2          O  0.07572042  0.99490635  0.66784788    -0.72600
O3          O  0.06816641  0.03653678  0.69060467    -0.72500
O4          O  0.06904077  0.44944028  0.69007379    -0.72500
O5          O  0.51919718  0.44944622  0.68534836    -0.72400
O6          O  0.52024033  0.03576168  0.68749184    -0.72500
O7          O  0.52599406  0.49633579  0.66541543    -0.72400
O8          O  0.51374701  0.98790124  0.70715108    -0.72600
V9          V  0.06813523  0.99302213  0.68952518     1.35200
V10         V  0.52167970  0.99224071  0.68569703     1.35200
C11         C  0.53596926  0.98669341  0.71655428     0.76800
C12         C  0.55440479  0.99572093  0.65850818     0.76900
C13         C  0.04299814  0.05100803  0.68979758     0.76800
C14         C  0.04476805  0.43427231  0.68753158     0.76700
O15         O  0.51219126  0.24405460  0.70834601    -0.72400
O16         O  0.52531379  0.23976589  0.66502504    -0.72600
O17         O  0.52026671  0.19822198  0.68771014    -0.72500
O18         O  0.51758551  0.28545645  0.68558581    -0.72500
O19         O  0.06736052  0.28645213  0.68810525    -0.72400
O20         O  0.06741480  0.19972938  0.69203751    -0.72500
O21         O  0.07366597  0.23947826  0.66844965    -0.72400
O22         O  0.06086327  0.24783371  0.71180092    -0.72600
V23         V  0.51978728  0.24184891  0.68674311     1.35200
V24         V  0.06635537  0.24320036  0.69007216     1.35200
C25         C  0.03390198  0.24896101  0.71736430     0.76800
C26         C  0.05102165  0.23867666  0.65924839     0.76900
C27         C  0.54535301  0.18428902  0.69021007     0.76800
C28         C  0.54208549  0.30113180  0.68633601     0.76700
O29         O  0.23807825  0.00489306  0.66481484    -0.72400
O30         O  0.25045855  0.49830223  0.70797163    -0.72600
O31         O  0.24315609  0.45803671  0.68517798    -0.72500
O32         O  0.24563157  0.04396455  0.68843940    -0.72500
O33         O  0.19612452  0.04400135  0.69135200    -0.72400
O34         O  0.19420695  0.45655980  0.69002395    -0.72500
O35         O  0.20264475  0.99784780  0.71183440    -0.72400
O36         O  0.18541776  0.50195031  0.66923856    -0.72600
V37         V  0.24155150  0.50133142  0.68654204     1.35200
V38         V  0.19432445  0.50021540  0.69077626     1.35200
C39         C  0.20738647  0.50343402  0.65969717     0.76800
C40         C  0.22856882  0.49658641  0.71753093     0.76900
C41         C  0.21919283  0.44239546  0.68764340     0.76800
C42         C  0.22100876  0.05897216  0.69034659     0.76700
O43         O  0.20576648  0.25161665  0.71229165    -0.72400
O44         O  0.19293636  0.24993846  0.66867853    -0.72600
O45         O  0.20031182  0.20708263  0.69076232    -0.72500
O46         O  0.19782735  0.29389171  0.69017615    -0.72500
O47         O  0.24690323  0.29535022  0.68566312    -0.72400
O48         O  0.24988147  0.20815014  0.68814488    -0.72500
O49         O  0.24240052  0.24949964  0.66531364    -0.72400
O50         O  0.25502832  0.25476006  0.70848512    -0.72600
V51         V  0.20015786  0.25053401  0.69042715     1.35200
V52         V  0.24760676  0.25178931  0.68698573     1.35200
C53         C  0.23266808  0.25489692  0.71777498     0.76800
C54         C  0.21567318  0.25021307  0.65953525     0.76900
C55         C  0.22539676  0.19260803  0.68953635     0.76800
C56         C  0.22170466  0.30949100  0.68747625     0.76700
O57         O  0.50988339  0.99122136  0.79145939    -0.72400
O58         O  0.00233289  0.97718404  0.83476510    -0.72600
O59         O  0.04904118  0.98332550  0.81460444    -0.72500
O60         O  0.46198364  0.98521190  0.81117880    -0.72500
O61         O  0.45962726  0.43497051  0.80947883    -0.72400
O62         O  0.04653229  0.43236421  0.81015820    -0.72500
O63         O  0.50218036  0.42629303  0.83172559    -0.72400
O64         O  0.00469639  0.44122374  0.78812301    -0.72600
V65         V  0.00557476  0.98337091  0.81307251     1.35200
V66         V  0.00304967  0.43422784  0.80983412     1.35200
C67         C  0.00814221  0.46835870  0.78306237     0.76800
C68         C  0.00129553  0.44742328  0.84100310     0.76900
C69         C  0.06358304  0.95879416  0.81193640     0.76800
C70         C  0.44660678  0.96074416  0.80969977     0.76700
O71         O  0.51312010  0.29905777  0.78800530    -0.72400
O72         O  0.00679564  0.31629109  0.83111047    -0.72600
O73         O  0.05323445  0.30854599  0.81101437    -0.72500
O74         O  0.46609933  0.30686314  0.80794099    -0.72500
O75         O  0.46506208  0.25804211  0.81295559    -0.72400
O76         O  0.05227817  0.25913118  0.81442860    -0.72500
O77         O  0.50740796  0.26499564  0.83535936    -0.72400
O78         O  0.01033534  0.25250662  0.79192653    -0.72600
V79         V  0.00981424  0.30810575  0.80949209     1.35200
V80         V  0.00858653  0.26085614  0.81341304     1.35200
C81         C  0.01286809  0.27441268  0.78244461     0.76800
C82         C  0.00663877  0.29399070  0.84050596     0.76900
C83         C  0.06762854  0.28365042  0.81290514     0.76800
C84         C  0.45062860  0.28272731  0.81026360     0.76700
O85         O  0.25323365  0.42552375  0.83055784    -0.72400
O86         O  0.25155692  0.44121265  0.78710948    -0.72600
O87         O  0.29618695  0.43314811  0.80841195    -0.72500
O88         O  0.20903429  0.43297310  0.80922329    -0.72500
O89         O  0.21107260  0.98300752  0.81457440    -0.72400
O90         O  0.29810253  0.98344478  0.81105008    -0.72500
O91         O  0.25058305  0.99051673  0.79142706    -0.72400
O92         O  0.25783810  0.97639250  0.83437373    -0.72600
V93         V  0.25258913  0.43410821  0.80889459     1.35200
V94         V  0.25452144  0.98234894  0.81279324     1.35200
C95         C  0.25680583  0.94961429  0.84003904     0.76800
C96         C  0.25000557  0.96855474  0.78193647     0.76900
C97         C  0.31124952  0.45786316  0.80949719     0.76800
C98         C  0.19427638  0.45709625  0.81245792     0.76700
O99         O  0.26278316  0.26445450  0.83590775    -0.72400
O100        O  0.25380202  0.25020453  0.79288023    -0.72600
O101        O  0.30228935  0.25695391  0.81218376    -0.72500
O102        O  0.21531891  0.25776797  0.81659286    -0.72500
O103        O  0.21501327  0.30653852  0.81136784    -0.72400
O104        O  0.30214295  0.30645347  0.80929980    -0.72500
O105        O  0.25620243  0.29934138  0.78873728    -0.72400
O106        O  0.26007809  0.31359233  0.83203488    -0.72600
V107        V  0.25871650  0.25828674  0.81431457     1.35200
V108        V  0.25850411  0.30554545  0.81044187     1.35200
C109        C  0.26149191  0.29134795  0.84141477     0.76800
C110        C  0.25285898  0.27239955  0.78347861     0.76900
C111        C  0.31714140  0.28160075  0.81002612     0.76800
C112        C  0.20032250  0.28227275  0.81452566     0.76700
O113        O  0.51227675  0.00279342  0.33530277    -0.72400
O114        O  0.50062661  0.49973598  0.29340361    -0.72600
O115        O  0.50862534  0.45725576  0.31538808    -0.72500
O116        O  0.50602491  0.04502153  0.31299828    -0.72500
O117        O  0.05373612  0.04430684  0.30823811    -0.72400
O118        O  0.05881615  0.45838576  0.31102830    -0.72500
O119        O  0.04348306  0.99822146  0.28771251    -0.72400
O120        O  0.06628914  0.50351295  0.33181932    -0.72600
V121        V  0.50969900  0.50084256  0.31487914     1.35200
V122        V  0.05731844  0.50189350  0.31030034     1.35200
C123        C  0.04440030  0.50341417  0.34143286     0.76800
C124        C  0.02287343  0.49807725  0.28352605     0.76900
C125        C  0.53312212  0.44225866  0.31314791     0.76800
C126        C  0.53123862  0.05893992  0.31079339     0.76700
O127        O  0.51735457  0.24945926  0.33417224    -0.72400
O128        O  0.50500888  0.25223341  0.29091488    -0.72600
O129        O  0.51159480  0.20710259  0.31183764    -0.72500
O130        O  0.51115543  0.29424306  0.31331878    -0.72500
O131        O  0.06130349  0.29606477  0.31029679    -0.72400
O132        O  0.06104200  0.20883935  0.30798442    -0.72500
O133        O  0.05526826  0.25531137  0.28728268    -0.72400
O134        O  0.06673860  0.25052124  0.33095249    -0.72600
V135        V  0.51228603  0.25068900  0.31248051     1.35200
V136        V  0.06017127  0.25255205  0.30915918     1.35200
C137        C  0.04372457  0.25136408  0.33991500     0.76800
C138        C  0.02840568  0.25552328  0.28151945     0.76900
C139        C  0.53632900  0.19234956  0.30975404     0.76800
C140        C  0.53593722  0.30937139  0.31219967     0.76700
O141        O  0.23122486  0.50674658  0.33533950    -0.72400
O142        O  0.24213697  0.00100614  0.29235238    -0.72600
O143        O  0.23528296  0.04758816  0.31275063    -0.72500
O144        O  0.23763389  0.46086902  0.31491621    -0.72500
O145        O  0.18799078  0.46030623  0.31214476    -0.72400
O146        O  0.18597516  0.04643433  0.30907316    -0.72500
O147        O  0.19413579  0.49932306  0.28851131    -0.72400
O148        O  0.18033657  0.00600808  0.33243362    -0.72600
V149        V  0.23484376  0.00392816  0.31399590     1.35200
V150        V  0.18733051  0.00304083  0.31067737     1.35200
C151        C  0.20313234  0.00693286  0.34157189     0.76800
C152        C  0.21965090  0.99819915  0.28316822     0.76900
C153        C  0.21026757  0.06201815  0.31077169     0.76800
C154        C  0.21281444  0.44570460  0.31407465     0.76700
O155        O  0.19280616  0.25579935  0.28895765    -0.72400
O156        O  0.17900421  0.25227033  0.33241919    -0.72600
O157        O  0.18533963  0.29754463  0.31147050    -0.72500
O158        O  0.18657181  0.21039779  0.30982920    -0.72500
O159        O  0.23603174  0.21099179  0.31304892    -0.72400
O160        O  0.23440174  0.29790273  0.31613592    -0.72500
O161        O  0.22838816  0.25094686  0.33619002    -0.72400
O162        O  0.24208496  0.25818523  0.29303653    -0.72600
V163        V  0.18685352  0.25399692  0.31075860     1.35200
V164        V  0.23424779  0.25445917  0.31453847     1.35200
C165        C  0.21984367  0.25824856  0.28361377     0.76800
C166        C  0.20142836  0.25041942  0.34171823     0.76900
C167        C  0.20975621  0.31265742  0.31384997     0.76800
C168        C  0.21161628  0.19571927  0.31097591     0.76700
O169        O  0.53584561  0.00239121  0.45888103    -0.72400
O170        O  0.53720361  0.50442677  0.41660386    -0.72600
O171        O  0.53992116  0.45999183  0.43799030    -0.72500
O172        O  0.53295104  0.04652142  0.43733512    -0.72500
O173        O  0.08329961  0.04836189  0.43631797    -0.72400
O174        O  0.08869824  0.46017647  0.43529401    -0.72500
O175        O  0.08103863  0.00588235  0.41364235    -0.72400
O176        O  0.09285974  0.50145712  0.45847376    -0.72600
V177        V  0.54133397  0.50358414  0.43836479     1.35200
V178        V  0.08916631  0.50380929  0.43656511     1.35200
C179        C  0.06890232  0.50297187  0.46675799     0.76800
C180        C  0.06117624  0.50684613  0.40797406     0.76900
C181        C  0.56450168  0.44484448  0.43619402     0.76800
C182        C  0.55778941  0.06171781  0.43706820     0.76700
O183        O  0.53555873  0.25339951  0.45890344    -0.72400
O184        O  0.53255260  0.25334351  0.41505734    -0.72600
O185        O  0.53333706  0.20981149  0.43688436    -0.72500
O186        O  0.53485520  0.29711905  0.43694025    -0.72500
O187        O  0.08281087  0.29788759  0.43477397    -0.72400
O188        O  0.08316584  0.21074134  0.43679107    -0.72500
O189        O  0.08127287  0.25233991  0.41390655    -0.72400
O190        O  0.08462698  0.25602145  0.45789278    -0.72600
V191        V  0.53506138  0.25342241  0.43693565     1.35200
V192        V  0.08201978  0.25432139  0.43588479     1.35200
C193        C  0.06022287  0.25541437  0.46591298     0.76800
C194        C  0.05568826  0.25257698  0.40688018     0.76900
C195        C  0.55807033  0.19450893  0.43671682     0.76800
C196        C  0.56004744  0.31160568  0.43603781     0.76700
O197        O  0.21587447  0.00282647  0.41738795    -0.72400
O198        O  0.21142408  0.49827156  0.46022770    -0.72600
O199        O  0.21543532  0.45705160  0.43726836    -0.72500
O200        O  0.21161743  0.04313340  0.44075048    -0.72500
O201        O  0.16211783  0.04238632  0.43727296    -0.72400
O202        O  0.16553445  0.45507406  0.43740991    -0.72500
O203        O  0.15970444  0.99904721  0.45924093    -0.72400
O204        O  0.16617383  0.49834545  0.41496705    -0.72600
V205        V  0.21254083  0.50063360  0.43838738     1.35200
V206        V  0.16467973  0.49873442  0.43707026     1.35200
C207        C  0.19197757  0.50097063  0.40822834     0.76800
C208        C  0.18587647  0.49867560  0.46719568     0.76900
C209        C  0.19108739  0.44109862  0.43726596     0.76800
C210        C  0.18651574  0.05764742  0.43942659     0.76700
O211        O  0.16103434  0.24989000  0.45966769    -0.72400
O212        O  0.16322105  0.25041105  0.41562524    -0.72600
O213        O  0.16078241  0.20627006  0.43745570    -0.72500
O214        O  0.16332884  0.29349764  0.43791449    -0.72500
O215        O  0.21324803  0.29222293  0.43769100    -0.72400
O216        O  0.21066045  0.20490692  0.43896430    -0.72500
O217        O  0.21305944  0.24719125  0.41638012    -0.72400
O218        O  0.21099703  0.24988006  0.46011613    -0.72600
V219        V  0.16303422  0.24992998  0.43765852     1.35200
V220        V  0.21100418  0.24856624  0.43825692     1.35200
C221        C  0.18579920  0.25015273  0.46740498     0.76800
C222        C  0.18861772  0.24892933  0.40847922     0.76900
C223        C  0.18529128  0.19066752  0.43824821     0.76800
C224        C  0.18866118  0.30779315  0.43803765     0.76700
O225        O  0.99473688  0.41289434  0.04282307    -0.72400
O226        O  0.49358340  0.42233647  0.08694790    -0.72600
O227        O  0.45046539  0.41662455  0.06487164    -0.72500
O228        O  0.03773517  0.41842647  0.06494129    -0.72500
O229        O  0.03491104  0.96448771  0.06214307    -0.72400
O230        O  0.44783594  0.96130682  0.06213856    -0.72500
O231        O  0.99101944  0.96568176  0.08378067    -0.72400
O232        O  0.49157148  0.96016971  0.04026629    -0.72600
V233        V  0.49407239  0.41876516  0.06501568     1.35200
V234        V  0.49156566  0.96196447  0.06217112     1.35200
C235        C  0.49356305  0.93447647  0.03352106     0.76800
C236        C  0.49228097  0.94202983  0.09239193     0.76900
C237        C  0.43491497  0.44089486  0.06324198     0.76800
C238        C  0.05204852  0.44363766  0.06414579     0.76700
O239        O  0.50084626  0.33376015  0.04100246    -0.72400
O240        O  0.99785583  0.33063990  0.08467575    -0.72600
O241        O  0.04333458  0.33197830  0.06357312    -0.72500
O242        O  0.45583659  0.33211642  0.06200876    -0.72500
O243        O  0.45601068  0.28232286  0.06063586    -0.72400
O244        O  0.04297508  0.28215767  0.06298774    -0.72500
O245        O  0.49684040  0.28043233  0.08377650    -0.72400
O246        O  0.00130431  0.28352465  0.04011403    -0.72600
V247        V  0.99967048  0.33119947  0.06265329     1.35200
V248        V  0.99935388  0.28332084  0.06190996     1.35200
C249        C  0.00148956  0.30869196  0.03287128     0.76800
C250        C  0.99623632  0.30507970  0.09165863     0.76900
C251        C  0.05810216  0.30696992  0.06347555     0.76800
C252        C  0.44108180  0.30724454  0.06070558     0.76700
O253        O  0.24388519  0.42134098  0.08495683    -0.72400
O254        O  0.24363192  0.41486973  0.04095688    -0.72600
O255        O  0.28709351  0.41766864  0.06287622    -0.72500
O256        O  0.19993314  0.41817593  0.06296419    -0.72500
O257        O  0.19891669  0.96458684  0.06231938    -0.72400
O258        O  0.28625768  0.96330450  0.06199221    -0.72500
O259        O  0.24214081  0.96191873  0.04033270    -0.72400
O260        O  0.24280150  0.96614139  0.08419719    -0.72600
V261        V  0.24358907  0.41896883  0.06291806     1.35200
V262        V  0.24255779  0.96299771  0.06226921     1.35200
C263        C  0.24283099  0.94205773  0.09238436     0.76800
C264        C  0.24207355  0.93638671  0.03335795     0.76900
C265        C  0.30215260  0.44228878  0.06129684     0.76800
C266        C  0.18508967  0.44309555  0.06227499     0.76700
O267        O  0.25056599  0.28208313  0.08439948    -0.72400
O268        O  0.24786829  0.28667987  0.04055766    -0.72600
O269        O  0.29250056  0.28327323  0.06175946    -0.72500
O270        O  0.20573340  0.28518088  0.06324175    -0.72500
O271        O  0.20647497  0.33493705  0.06484223    -0.72400
O272        O  0.29401943  0.33302166  0.06273857    -0.72500
O273        O  0.24814324  0.33646430  0.04180673    -0.72400
O274        O  0.25220726  0.33179283  0.08575316    -0.72600
V275        V  0.24914573  0.28532637  0.06251244     1.35200
V276        V  0.25021234  0.33314032  0.06375410     1.35200
C277        C  0.25212772  0.30607228  0.09261336     0.76800
C278        C  0.24748718  0.31233106  0.03365351     0.76900
C279        C  0.30819242  0.30763660  0.06202341     0.76800
C280        C  0.19121860  0.31016993  0.06448858     0.76700
O281        O  0.49518342  0.98578494  0.16469002    -0.72400
O282        O  0.99295576  0.99966634  0.20805996    -0.72600
O283        O  0.03751826  0.99454977  0.18678557    -0.72500
O284        O  0.45007000  0.99071548  0.18564869    -0.72500
O285        O  0.44971438  0.44947957  0.19212652    -0.72400
O286        O  0.03671897  0.44844674  0.18870487    -0.72500
O287        O  0.49688776  0.45428906  0.21248226    -0.72400
O288        O  0.98993999  0.44434307  0.16860762    -0.72600
V289        V  0.99390952  0.99238756  0.18639932     1.35200
V290        V  0.99328859  0.44990890  0.19035776     1.35200
C291        C  0.99093996  0.46745922  0.15972594     0.76800
C292        C  0.99731755  0.48020573  0.21827904     0.76900
C293        C  0.05300272  0.97013922  0.18810399     0.76800
C294        C  0.43589808  0.96569225  0.18778235     0.76700
O295        O  0.49370594  0.31498067  0.16789749    -0.72400
O296        O  0.00079487  0.30300965  0.21096405    -0.72600
O297        O  0.04069119  0.31002238  0.18801077    -0.72500
O298        O  0.45337237  0.30804067  0.19115029    -0.72500
O299        O  0.45305632  0.25891630  0.18685681    -0.72400
O300        O  0.04076522  0.26070992  0.18427657    -0.72500
O301        O  0.49947644  0.25251116  0.20747866    -0.72400
O302        O  0.99427384  0.26647494  0.16402952    -0.72600
V303        V  0.99722922  0.30843237  0.18922270     1.35200
V304        V  0.99730013  0.26104252  0.18575973     1.35200
C305        C  0.99418524  0.29332026  0.15838665     0.76800
C306        C  0.00343139  0.27617843  0.21647371     0.76900
C307        C  0.05558735  0.28541293  0.18612592     0.76800
C308        C  0.43829392  0.28351433  0.18908127     0.76700
O309        O  0.24046987  0.45321803  0.21117156    -0.72400
O310        O  0.24534948  0.44126188  0.16757974    -0.72600
O311        O  0.28673879  0.44762857  0.19064097    -0.72500
O312        O  0.19967985  0.44666510  0.18826595    -0.72500
O313        O  0.20135623  0.99134220  0.18727347    -0.72400
O314        O  0.28859500  0.98934865  0.18581107    -0.72500
O315        O  0.24305849  0.98329209  0.16482091    -0.72400
O316        O  0.24620954  0.99758980  0.20822934    -0.72600
V317        V  0.24315442  0.44813883  0.18933530     1.35200
V318        V  0.24491313  0.98946823  0.18658342     1.35200
C319        C  0.24253586  0.97564529  0.21763966     0.76800
C320        C  0.24421176  0.95634479  0.15931866     0.76900
C321        C  0.30164586  0.47232065  0.18888821     0.76800
C322        C  0.18461352  0.47136134  0.18725207     0.76700
O323        O  0.24273464  0.25553076  0.20875105    -0.72400
O324        O  0.24955125  0.26873588  0.16544871    -0.72600
O325        O  0.28999172  0.26142022  0.18859121    -0.72500
O326        O  0.20290964  0.26294134  0.18551642    -0.72500
O327        O  0.20323563  0.31210546  0.18965050    -0.72400
O328        O  0.29037643  0.31081829  0.19193821    -0.72500
O329        O  0.24887997  0.31795695  0.16907401    -0.72400
O330        O  0.24414625  0.30475682  0.21252555    -0.72600
V331        V  0.24637654  0.26310856  0.18716374     1.35200
V332        V  0.24673242  0.31044911  0.19073954     1.35200
C333        C  0.24192091  0.27788794  0.21806936     0.76800
C334        C  0.24978679  0.29557851  0.15977748     0.76900
C335        C  0.30511322  0.28594926  0.19060445     0.76800
C336        C  0.18822730  0.28779454  0.18708340     0.76700
O337        O  0.49743385  0.96144239  0.91544384    -0.72400
O338        O  0.99570433  0.95865782  0.95931442    -0.72600
O339        O  0.04064216  0.96038384  0.93809898    -0.72500
O340        O  0.45323583  0.95968150  0.93702945    -0.72500
O341        O  0.45291240  0.40792423  0.93706889    -0.72400
O342        O  0.04053338  0.41027418  0.93786417    -0.72500
O343        O  0.49582234  0.40785938  0.95960659    -0.72400
O344        O  0.99769473  0.41012142  0.91517247    -0.72600
V345        V  0.99706298  0.95950846  0.93741321     1.35200
V346        V  0.99683727  0.40963732  0.93729783     1.35200
C347        C  0.99765502  0.43569069  0.90811996     0.76800
C348        C  0.99352820  0.43201196  0.96709272     0.76900
C349        C  0.05560450  0.93549919  0.93785806     0.76800
C350        C  0.43841090  0.93469769  0.93692650     0.76700
O351        O  0.49811932  0.33268668  0.91426350    -0.72400
O352        O  0.99357772  0.33471159  0.95813719    -0.72600
O353        O  0.03919889  0.33451123  0.93721956    -0.72500
O354        O  0.45219948  0.33332584  0.93489717    -0.72500
O355        O  0.45269738  0.28358522  0.93663447    -0.72400
O356        O  0.03985204  0.28462832  0.93725443    -0.72500
O357        O  0.49553522  0.28550861  0.95890733    -0.72400
O358        O  0.99711297  0.28304421  0.91491460    -0.72600
V359        V  0.99564512  0.33293087  0.93614564     1.35200
V360        V  0.99615867  0.28503358  0.93675016     1.35200
C361        C  0.99793257  0.30748809  0.90703437     0.76800
C362        C  0.99418440  0.31001573  0.96588926     0.76900
C363        C  0.05439949  0.30978535  0.93766829     0.76800
C364        C  0.43756012  0.30832864  0.93573782     0.76700
O365        O  0.24705427  0.41060433  0.95798302    -0.72400
O366        O  0.24361170  0.41184999  0.91397236    -0.72600
O367        O  0.28874434  0.40976193  0.93507587    -0.72500
O368        O  0.20144145  0.41282085  0.93704268    -0.72500
O369        O  0.20388154  0.96309556  0.93682882    -0.72400
O370        O  0.29109596  0.96242126  0.93728557    -0.72500
O371        O  0.24828421  0.96402919  0.91520301    -0.72400
O372        O  0.24673195  0.96124234  0.95906027    -0.72600
V373        V  0.24519599  0.41219336  0.93600879     1.35200
V374        V  0.24748296  0.96169558  0.93708745     1.35200
C375        C  0.24720627  0.93587721  0.96621844     0.76800
C376        C  0.24774982  0.93980554  0.90713887     0.76900
C377        C  0.30441426  0.43424384  0.93477496     0.76800
C378        C  0.18743903  0.43830307  0.93749605     0.76700
O379        O  0.24668880  0.28854294  0.95946478    -0.72400
O380        O  0.24562912  0.28401686  0.91585058    -0.72600
O381        O  0.28954275  0.28590461  0.93732437    -0.72500
O382        O  0.20212744  0.28710883  0.93791837    -0.72500
O383        O  0.20284264  0.33688487  0.93658295    -0.72400
O384        O  0.29018370  0.33572196  0.93582207    -0.72500
O385        O  0.24600169  0.33377218  0.91425599    -0.72400
O386        O  0.24728830  0.33833595  0.95837539    -0.72600
V387        V  0.24589485  0.28741706  0.93762229     1.35200
V388        V  0.24649854  0.33526103  0.93631831     1.35200
C389        C  0.24776283  0.31399755  0.96643895     0.76800
C390        C  0.24646261  0.30787765  0.90755499     0.76900
C391        C  0.30471297  0.31059525  0.93614318     0.76800
C392        C  0.18753287  0.31222506  0.93722055     0.76700
O393        O  0.54015091  0.99559293  0.58380104    -0.72400
O394        O  0.54741381  0.49306437  0.54081690    -0.72600
O395        O  0.54425332  0.45088047  0.56359937    -0.72500
O396        O  0.54005891  0.03751133  0.56116748    -0.72500
O397        O  0.08895626  0.03887619  0.56286938    -0.72400
O398        O  0.09365501  0.45064328  0.56438888    -0.72500
O399        O  0.09089199  0.99597628  0.54057557    -0.72400
O400        O  0.09205389  0.49492198  0.58611421    -0.72600
V401        V  0.54579382  0.49455287  0.56274961     1.35200
V402        V  0.09330367  0.49426210  0.56406921     1.35200
C403        C  0.06629683  0.49648747  0.59293189     0.76800
C404        C  0.07223427  0.49365236  0.53387494     0.76900
C405        C  0.56910521  0.43577632  0.56407363     0.76800
C406        C  0.56466292  0.05302945  0.56186678     0.76700
O407        O  0.53941053  0.24220491  0.58483761    -0.72400
O408        O  0.54071180  0.24712813  0.54107558    -0.72600
O409        O  0.53954735  0.20105618  0.56189811    -0.72500
O410        O  0.54079494  0.28825915  0.56429269    -0.72500
O411        O  0.09014743  0.28798626  0.56329372    -0.72400
O412        O  0.08916200  0.20094395  0.56336999    -0.72500
O413        O  0.09021314  0.24459681  0.54105797    -0.72400
O414        O  0.08874797  0.24450742  0.58525065    -0.72600
V415        V  0.54108619  0.24466414  0.56299447     1.35200
V416        V  0.08864203  0.24449278  0.56318592     1.35200
C417        C  0.06338134  0.24311163  0.59244856     0.76800
C418        C  0.06540858  0.24661509  0.53335126     0.76900
C419        C  0.56426627  0.18590745  0.56314110     0.76800
C420        C  0.56603387  0.30278580  0.56424917     0.76700
O421        O  0.21160732  0.00597061  0.54090343    -0.72400
O422        O  0.21796894  0.50650968  0.58484685    -0.72600
O423        O  0.21561072  0.46389478  0.56267247    -0.72500
O424        O  0.21710811  0.05006453  0.56257222    -0.72500
O425        O  0.16737626  0.05246296  0.56478291    -0.72400
O426        O  0.16567848  0.46413516  0.56411921    -0.72500
O427        O  0.16853957  0.00839218  0.58655091    -0.72400
O428        O  0.16398869  0.50852824  0.54225014    -0.72600
V429        V  0.21496033  0.50747281  0.56301056     1.35200
V430        V  0.16700064  0.50786209  0.56418900     1.35200
C431        C  0.18821165  0.50821533  0.53414221     0.76800
C432        C  0.19384879  0.50572945  0.59300475     0.76900
C433        C  0.19060574  0.44914773  0.56360925     0.76800
C434        C  0.19300962  0.06613404  0.56385383     0.76700
O435        O  0.21537264  0.25790823  0.54085049    -0.72400
O436        O  0.22235538  0.25771481  0.58443257    -0.72600
O437        O  0.21931017  0.21425811  0.56260322    -0.72500
O438        O  0.21813532  0.30168344  0.56254628    -0.72500
O439        O  0.16853035  0.30095851  0.56565511    -0.72400
O440        O  0.16936581  0.21382665  0.56346438    -0.72500
O441        O  0.17266367  0.25483073  0.58648453    -0.72400
O442        O  0.16556405  0.25959573  0.54264049    -0.72600
V443        V  0.21782006  0.25795671  0.56267038     1.35200
V444        V  0.16997146  0.25736523  0.56454299     1.35200
C445        C  0.18941547  0.25897675  0.53424839     0.76800
C446        C  0.19886732  0.25512708  0.59293881     0.76900
C447        C  0.19441672  0.19912731  0.56271935     0.76800
C448        C  0.19306996  0.31622232  0.56393904     0.76700
C449        C  0.19084595  0.41520827  0.56403842    -0.06700
C450        C  0.21022597  0.39956409  0.55381451    -0.17900
C451        C  0.21082668  0.36743744  0.55326213     0.10500
C452        C  0.19231184  0.35022077  0.56350023    -0.06700
C453        C  0.17278329  0.36587825  0.57368606    -0.17900
C454        C  0.17216874  0.39805922  0.57422707     0.10500
S455        S  0.23434400  0.34994947  0.53862141    -0.32900
S456        S  0.14798962  0.41574056  0.58854506    -0.32900
H457        H  0.16848442  0.43983371  0.59194051     0.28500
H458        H  0.21321110  0.32646709  0.53511152     0.28500
H459        H  0.22433835  0.41251653  0.54582391     0.19100
H460        H  0.15850964  0.35293233  0.58160638     0.19100
C461        C  0.19427888  0.10009485  0.56385687    -0.06700
C462        C  0.17019754  0.11598968  0.55667064    -0.17900
C463        C  0.17047599  0.14796093  0.55549962     0.10500
C464        C  0.19460617  0.16507341  0.56228254    -0.06700
C465        C  0.21888311  0.14919081  0.56940618    -0.17900
C466        C  0.21889775  0.11702764  0.57036297     0.10500
S467        S  0.14047747  0.16513407  0.54420664    -0.32900
S468        S  0.25003342  0.09925310  0.58078667    -0.32900
H469        H  0.23130349  0.07729355  0.58811441     0.28500
H470        H  0.16001890  0.18704527  0.53740243     0.28500
H471        H  0.15146413  0.10331336  0.55137900     0.19100
H472        H  0.23749808  0.16194408  0.57473669     0.19100
C473        C  0.56876680  0.40171105  0.56417112    -0.06700
C474        C  0.54559334  0.38635733  0.57239184    -0.17900
C475        C  0.54470403  0.35419214  0.57314332     0.10500
C476        C  0.56694386  0.33672145  0.56510599    -0.06700
C477        C  0.08989928  0.35233828  0.55728711    -0.17900
C478        C  0.09079458  0.38433948  0.55652757     0.10500
S479        S  0.51571612  0.33702904  0.58523016    -0.32900
S480        S  0.11974771  0.40107841  0.54443304    -0.32900
H481        H  0.09888019  0.42241805  0.53831120     0.28500
H482        H  0.53516503  0.31391074  0.59103845     0.28500
H483        H  0.52851242  0.39951738  0.57861934     0.19100
H484        H  0.10717402  0.33927307  0.55112410     0.19100
C485        C  0.56408075  0.08702327  0.56194929    -0.06700
C486        C  0.08517848  0.10290977  0.57081980    -0.17900
C487        C  0.08526225  0.13500463  0.57181023     0.10500
C488        C  0.56384854  0.15193935  0.56355410    -0.06700
C489        C  0.54264513  0.13631756  0.55421296    -0.17900
C490        C  0.54271903  0.10422446  0.55319330     0.10500
S491        S  0.11222671  0.15229679  0.58502671    -0.32900
S492        S  0.51632950  0.08684006  0.53976530    -0.32900
H493        H  0.53766436  0.06505354  0.53441185     0.28500
H494        H  0.09174035  0.17502976  0.59024675     0.28500
H495        H  0.10180229  0.08999039  0.57751899     0.19100
H496        H  0.52661582  0.14926367  0.54718696     0.19100
C497        C  0.40358912  0.30836794  0.93584144    -0.06700
C498        C  0.38790007  0.32881506  0.92610581    -0.17900
C499        C  0.35569218  0.32964264  0.92566963     0.10500
C500        C  0.33861936  0.30990472  0.93537946    -0.06700
C501        C  0.35433202  0.28933960  0.94499479    -0.17900
C502        C  0.38646740  0.28885610  0.94560179     0.10500
S503        S  0.33790282  0.35523570  0.91197418    -0.32900
S504        S  0.40408665  0.26455425  0.95989827    -0.32900
H505        H  0.42677438  0.28605740  0.96412689     0.28500
H506        H  0.31391229  0.33497111  0.90801252     0.28500
H507        H  0.40085116  0.34391553  0.91857594     0.19100
H508        H  0.34145818  0.27430918  0.95258090     0.19100
C509        C  0.08837336  0.31054387  0.93828207    -0.06700
C510        C  0.10369893  0.33389134  0.93021621    -0.17900
C511        C  0.13592136  0.33520421  0.92966566     0.10500
C512        C  0.15341792  0.31250625  0.93738457    -0.06700
C513        C  0.13800771  0.28925096  0.94552428    -0.17900
C514        C  0.10585599  0.28829458  0.94626867     0.10500
S515        S  0.15394235  0.36465333  0.91811492    -0.32900
S516        S  0.08870774  0.25896873  0.95815387    -0.32900
H517        H  0.06555471  0.27817792  0.96408810     0.28500
H518        H  0.12726608  0.38197111  0.91510123     0.28500
H519        H  0.09026471  0.35079574  0.92399343     0.19100
H520        H  0.15115960  0.27202813  0.95170162     0.19100
C521        C  0.33825966  0.43305178  0.93419905    -0.06700
C522        C  0.35317085  0.41147140  0.94349259    -0.17900
C523        C  0.38518919  0.41083165  0.94464371     0.10500
C524        C  0.40439046  0.93492248  0.93695962    -0.06700
C525        C  0.38912394  0.95645955  0.92767420    -0.17900
C526        C  0.35694950  0.95752690  0.92702206     0.10500
S527        S  0.40107428  0.38586501  0.95893094    -0.32900
S528        S  0.33966744  0.98457911  0.91391569    -0.32900
H529        H  0.31571731  0.96485497  0.90927744     0.28500
H530        H  0.41828240  0.36936238  0.94824985     0.28500
H531        H  0.33970189  0.39571257  0.95043064     0.19100
H532        H  0.40232721  0.97220477  0.92063775     0.19100
C533        C  0.15339463  0.43939984  0.93876123    -0.06700
C534        C  0.13827732  0.41540459  0.94652267    -0.17900
C535        C  0.10612534  0.41444183  0.94759721     0.10500
C536        C  0.08954164  0.93606989  0.93838348    -0.06700
C537        C  0.10464218  0.95964119  0.93043061    -0.17900
C538        C  0.13669160  0.96155671  0.93014576     0.10500
S539        S  0.08938454  0.38483236  0.95945411    -0.32900
S540        S  0.15306716  0.99320958  0.91971142    -0.32900
H541        H  0.16584184  0.00652618  0.93299969     0.28500
H542        H  0.06542757  0.40338158  0.96507422     0.28500
H543        H  0.15163824  0.39747543  0.95202964     0.19100
H544        H  0.09131194  0.97676273  0.92428730     0.19100
C545        C  0.40424041  0.28381431  0.18924039    -0.06700
C546        C  0.38923187  0.30480782  0.19889250    -0.17900
C547        C  0.35699533  0.30612782  0.19964392     0.10500
C548        C  0.33921116  0.28550388  0.19073281    -0.06700
C549        C  0.35427939  0.26446021  0.18110914    -0.17900
C550        C  0.38638431  0.26397609  0.17994187     0.10500
S551        S  0.33921708  0.33381456  0.21228388    -0.32900
S552        S  0.40286406  0.23929962  0.16549199    -0.32900
H553        H  0.42465807  0.26108582  0.16051309     0.28500
H554        H  0.36637136  0.34483705  0.21918139     0.28500
H555        H  0.40288638  0.32017395  0.20590710     0.19100
H556        H  0.34088939  0.24920169  0.17388171     0.19100
C557        C  0.08948076  0.28563809  0.18641449    -0.06700
C558        C  0.10497070  0.31195974  0.18119035    -0.17900
C559        C  0.13719816  0.31352623  0.18123303     0.10500
C560        C  0.15431599  0.28791450  0.18642908    -0.06700
C561        C  0.13875571  0.26164776  0.19162699    -0.17900
C562        C  0.10670335  0.26050654  0.19204826     0.10500
S563        S  0.15583525  0.34774270  0.17395679    -0.32900
S564        S  0.08947234  0.22723974  0.20094283    -0.32900
H565        H  0.06789352  0.24424927  0.20946775     0.28500
H566        H  0.12921294  0.36597961  0.17272769     0.28500
H567        H  0.09173792  0.33120034  0.17688337     0.19100
H568        H  0.15168857  0.24224580  0.19601991     0.19100
C569        C  0.33566028  0.47272362  0.18968101    -0.06700
C570        C  0.35246473  0.98215795  0.17784913    -0.17900
C571        C  0.38457299  0.98193896  0.17677479     0.10500
C572        C  0.40197475  0.96445843  0.18735289    -0.06700
C573        C  0.38478439  0.45331353  0.19902581    -0.17900
C574        C  0.35256678  0.45283000  0.19940660     0.10500
S575        S  0.40179148  0.00299974  0.16112332    -0.32900
S576        S  0.33461970  0.42743367  0.21311909    -0.32900
H577        H  0.31190000  0.44865761  0.21758832     0.28500
H578        H  0.42511958  0.98130686  0.15829478     0.28500
H579        H  0.33934007  0.99558373  0.16963146     0.19100
H580        H  0.39748824  0.43823011  0.20664885     0.19100
C581        C  0.08707292  0.97039593  0.18816728    -0.06700
C582        C  0.10121836  0.44881818  0.19422042    -0.17900
C583        C  0.13331499  0.44801980  0.19487739     0.10500
C584        C  0.15062001  0.47125086  0.18743824    -0.06700
C585        C  0.13696451  0.99247232  0.18196015    -0.17900
C586        C  0.10475305  0.99427605  0.18150886     0.10500
S587        S  0.15039105  0.41774663  0.20617844    -0.32900
S588        S  0.08701331  0.02642497  0.17173477    -0.32900
H589        H  0.11425137  0.04202725  0.16776779     0.28500
H590        H  0.17154686  0.43730687  0.21355384     0.28500
H591        H  0.08825401  0.43118206  0.20020776     0.19100
H592        H  0.15053731  0.01038371  0.17660069     0.19100
C593        C  0.24938656  0.31477272  0.98362051    -0.06700
C594        C  0.23197900  0.33649860  0.99179520    -0.17900
C595        C  0.23039763  0.33594878  0.00797099     0.10500
C596        C  0.24717713  0.31372161  0.01644479    -0.06700
C597        C  0.26485232  0.29227433  0.00824128    -0.17900
C598        C  0.26647406  0.29280843  0.99211618     0.10500
S599        S  0.20461630  0.36270190  0.01697301    -0.32900
S600        S  0.29210177  0.26570329  0.98312584    -0.32900
H601        H  0.30232569  0.28645325  0.97183445     0.28500
H602        H  0.19433445  0.34203197  0.02829953     0.28500
H603        H  0.21851967  0.35327739  0.98552818     0.19100
H604        H  0.27823776  0.27537768  0.01446817     0.19100
C605        C  0.25333264  0.30407835  0.10982798    -0.06700
C606        C  0.24021534  0.32767110  0.11871812    -0.17900
C607        C  0.23948201  0.32618604  0.13489769     0.10500
C608        C  0.25139560  0.30006275  0.14267171    -0.06700
C609        C  0.26469063  0.27666739  0.13373965    -0.17900
C610        C  0.26642881  0.27868871  0.11765918     0.10500
S611        S  0.22140713  0.35758523  0.14482236    -0.32900
S612        S  0.28742607  0.24890120  0.10792714    -0.32900
H613        H  0.30267877  0.26980645  0.09824127     0.28500
H614        H  0.24863489  0.36581228  0.15258450     0.28500
H615        H  0.23001997  0.34733616  0.11301524     0.19100
H616        H  0.27461532  0.25678018  0.13937056     0.19100
C617        C  0.24210071  0.93522540  0.01617391    -0.06700
C618        C  0.26169845  0.41520461  0.00803753    -0.17900
C619        C  0.26447700  0.41448261  0.99190122     0.10500
C620        C  0.24639485  0.93513709  0.98341449    -0.06700
C621        C  0.22592062  0.95484528  0.99108673    -0.17900
C622        C  0.22322931  0.95475370  0.00718780     0.10500
S623        S  0.29158719  0.38770322  0.98377285    -0.32900
S624        S  0.19412545  0.97910344  0.01551272    -0.32900
H625        H  0.18621388  0.95868825  0.02740678     0.28500
H626        H  0.30118488  0.40721412  0.97181339     0.28500
H627        H  0.27519702  0.39934297  0.01488055     0.19100
H628        H  0.21118831  0.96990975  0.98443967     0.19100
C629        C  0.24248316  0.95114534  0.14228861    -0.06700
C630        C  0.25866931  0.43414832  0.13475797    -0.17900
C631        C  0.26011065  0.42979916  0.11870610     0.10500
C632        C  0.24321297  0.94432101  0.10957410    -0.06700
C633        C  0.22179177  0.96363898  0.11682938    -0.17900
C634        C  0.22088448  0.96683623  0.13291895     0.10500
S635        S  0.28304715  0.39824121  0.11178744    -0.32900
S636        S  0.19057513  0.99022090  0.14085809    -0.32900
H637        H  0.18565988  0.97150167  0.15381243     0.28500
H638        H  0.29585398  0.41472386  0.09943457     0.28500
H639        H  0.27067992  0.41815598  0.14219431     0.19100
H640        H  0.20507944  0.97593381  0.10988859     0.19100
C641        C  0.40716117  0.30703423  0.05978990    -0.06700
C642        C  0.39151137  0.28155909  0.06578738    -0.17900
C643        C  0.35934056  0.28068688  0.06640887     0.10500
C644        C  0.34222658  0.30649084  0.06129686    -0.06700
C645        C  0.35796023  0.33171822  0.05497717    -0.17900
C646        C  0.39003172  0.33176391  0.05364525     0.10500
S647        S  0.34111172  0.24657375  0.07407267    -0.32900
S648        S  0.40734200  0.36287478  0.04299316    -0.32900
H649        H  0.42990243  0.34446484  0.03596460     0.28500
H650        H  0.36790675  0.23182828  0.07937454     0.28500
H651        H  0.40463259  0.26236109  0.07020150     0.19100
H652        H  0.34511991  0.35108191  0.05048683     0.19100
C653        C  0.09219585  0.30700163  0.06399123    -0.06700
C654        C  0.10732785  0.33115163  0.07165739    -0.17900
C655        C  0.13950198  0.33220572  0.07269462     0.10500
C656        C  0.15721185  0.30974043  0.06502681    -0.06700
C657        C  0.14209201  0.28560192  0.05745392    -0.17900
C658        C  0.10997592  0.28358067  0.05707672     0.10500
S659        S  0.15629865  0.36160021  0.08467544    -0.32900
S660        S  0.09255242  0.25146674  0.04716990    -0.32900
H661        H  0.11957441  0.23425987  0.04492758     0.28500
H662        H  0.17927608  0.34243985  0.09087097     0.28500
H663        H  0.09395891  0.34879387  0.07736600     0.19100
H664        H  0.15560380  0.26832376  0.05158571     0.19100
C665        C  0.99471615  0.30994035  0.98306868    -0.06700
C666        C  0.00967264  0.28561594  0.99059642    -0.17900
C667        C  0.01277331  0.28487837  0.00662520     0.10500
C668        C  0.00082231  0.30914087  0.01570703    -0.06700
C669        C  0.48450866  0.33347879  0.00847325    -0.17900
C670        C  0.48066034  0.33364852  0.99243184     0.10500
S671        S  0.03343883  0.25282720  0.01460911    -0.32900
S672        S  0.45478405  0.36163983  0.98458445    -0.32900
H673        H  0.44185954  0.34118349  0.97385463     0.28500
H674        H  0.05054951  0.27166682  0.02454569     0.28500
H675        H  0.01972556  0.26718170  0.98391142     0.19100
H676        H  0.47320251  0.35103822  0.01525028     0.19100
C677        C  0.99376231  0.29801910  0.14138062    -0.06700
C678        C  0.47728075  0.27605175  0.13238049    -0.17900
C679        C  0.47647369  0.27878827  0.11631283     0.10500
C680        C  0.99370621  0.30323952  0.10873898    -0.06700
C681        C  0.01039425  0.32402293  0.11787567    -0.17900
C682        C  0.01030581  0.32198274  0.13405460     0.10500
S683        S  0.45252993  0.25192753  0.10597778    -0.32900
S684        S  0.03314428  0.34891671  0.14503749    -0.32900
H685        H  0.03970662  0.36916424  0.13286044     0.28500
H686        H  0.44174970  0.27366715  0.09526924     0.28500
H687        H  0.46481049  0.25738557  0.13777267     0.19100
H688        H  0.02416035  0.34147573  0.11228394     0.19100
C689        C  0.40092770  0.44003807  0.06258599    -0.09900
C690        C  0.38427470  0.95745912  0.05376373    -0.17900
C691        C  0.35211793  0.95843536  0.05303946     0.10500
C692        C  0.33602904  0.44149626  0.06096117    -0.06700
C693        C  0.35102108  0.42107871  0.07090586    -0.17900
C694        C  0.38307125  0.42001434  0.07179765     0.10500
S695        S  0.33496058  0.98620675  0.04026106    -0.32900
S696        S  0.39924145  0.39473854  0.08601937    -0.32900
H697        H  0.41593688  0.37709958  0.07544784     0.28500
H698        H  0.31177750  0.96625199  0.03491220     0.28500
H699        H  0.39742727  0.97400995  0.04716204     0.19100
H700        H  0.33760051  0.40621396  0.07834244     0.19100
C701        C  0.08605426  0.44393335  0.06423216    -0.06700
C702        C  0.10141473  0.41965717  0.05693710    -0.17900
C703        C  0.13344735  0.41935126  0.05564759     0.10500
C704        C  0.15102790  0.44322979  0.06233500    -0.06700
C705        C  0.13410025  0.96486599  0.06897605    -0.17900
C706        C  0.10191339  0.96544493  0.06975761     0.10500
S707        S  0.15009262  0.38896312  0.04438428    -0.32900
S708        S  0.08445835  0.99689095  0.08000803    -0.32900
H709        H  0.06248056  0.97848176  0.08752762     0.28500
H710        H  0.17177398  0.40817450  0.03717018     0.28500
H711        H  0.08829412  0.40127412  0.05165886     0.19100
H712        H  0.14709660  0.98327349  0.07432728     0.19100
C713        C  0.99226748  0.43167027  0.98426220    -0.06700
C714        C  0.01298120  0.91213559  0.99179194    -0.17900
C715        C  0.01362981  0.91220810  0.00798748     0.10500
C716        C  0.49458034  0.93298322  0.01635653    -0.06700
C717        C  0.47443247  0.45333381  0.00898162    -0.17900
C718        C  0.47266033  0.45204627  0.99288085     0.10500
S719        S  0.04136034  0.88767159  0.01732205    -0.32900
S720        S  0.44398484  0.47568543  0.98365860    -0.32900
H721        H  0.43641534  0.45398355  0.97227273     0.28500
H722        H  0.04901714  0.90890200  0.02888971     0.28500
H723        H  0.02829978  0.89689259  0.98561623     0.19100
H724        H  0.45941647  0.46899894  0.01509651     0.19100
C725        C  0.99033118  0.46353851  0.14254104    -0.06700
C726        C  0.48437179  0.43422818  0.13674007    -0.17900
C727        C  0.48361248  0.42877841  0.12082227     0.10500
C728        C  0.49337023  0.94506932  0.10953650    -0.06700
C729        C  0.00595978  0.97270324  0.11553445    -0.17900
C730        C  0.00788688  0.97785221  0.13148595     0.10500
S731        S  0.47173288  0.39108421  0.11483869    -0.32900
S732        S  0.02657364  0.01244904  0.13827560    -0.32900
H733        H  0.03560542  0.02394578  0.12385681     0.28500
H734        H  0.45161062  0.40245091  0.10362848     0.28500
H735        H  0.47928983  0.41531025  0.14443713     0.19100
H736        H  0.01465319  0.99000207  0.10771741     0.19100
C737        C  0.18566474  0.25121114  0.48455264    -0.06700
C738        C  0.16425829  0.26999037  0.49223928    -0.17900
C739        C  0.16524123  0.27384524  0.50832606     0.10500
C740        C  0.18762282  0.25793640  0.51712592    -0.06700
C741        C  0.20889600  0.23923286  0.50938719    -0.17900
C742        C  0.20793360  0.23539363  0.49341114     0.10500
S743        S  0.13803233  0.30013282  0.51678347    -0.32900
S744        S  0.23489184  0.20860768  0.48516278    -0.32900
H745        H  0.21384780  0.19660811  0.47442152     0.28500
H746        H  0.15816195  0.31119531  0.52818298     0.28500
H747        H  0.14729640  0.28256866  0.48563184     0.19100
H748        H  0.22592926  0.22657348  0.51591668     0.19100
C749        C  0.19195229  0.40696133  0.43758503    -0.06700
C750        C  0.16781502  0.39157836  0.44506037    -0.17900
C751        C  0.16686961  0.35954621  0.44589892     0.10500
C752        C  0.18959751  0.34186641  0.43839447    -0.06700
C753        C  0.21421660  0.35712671  0.43125628    -0.17900
C754        C  0.21603178  0.38937556  0.43102309     0.10500
S755        S  0.13795021  0.34273795  0.45802698    -0.32900
S756        S  0.24900653  0.40727438  0.42211112    -0.32900
H757        H  0.26525580  0.38021865  0.41864537     0.28500
H758        H  0.12228788  0.33114152  0.44529445     0.28500
H759        H  0.14989090  0.40464834  0.45071925     0.19100
H760        H  0.23201516  0.34367180  0.42576720     0.19100
C761        C  0.18558303  0.09164484  0.43997975    -0.06700
C762        C  0.16401754  0.10703398  0.43071252    -0.17900
C763        C  0.16317865  0.13924709  0.42997641     0.10500
C764        C  0.18455232  0.15662009  0.43863003    -0.06700
C765        C  0.20589895  0.14120645  0.44800159    -0.17900
C766        C  0.20616706  0.10911638  0.44904754     0.10500
S767        S  0.13631849  0.15755333  0.41702124    -0.32900
S768        S  0.23221923  0.09207403  0.46276496    -0.32900
H769        H  0.21134865  0.06930933  0.46765119     0.28500
H770        H  0.11832223  0.13136193  0.41393616     0.28500
H771        H  0.14832700  0.09374444  0.42370625     0.19100
H772        H  0.22197675  0.15428158  0.45489780     0.19100
C773        C  0.18687960  0.50668524  0.51697662    -0.06700
C774        C  0.20763944  0.48714302  0.50940432    -0.17900
C775        C  0.20662497  0.48286865  0.49341808     0.10500
C776        C  0.18497016  0.49920102  0.48438226    -0.06700
C777        C  0.16311919  0.01966297  0.49204262    -0.17900
C778        C  0.16404011  0.02375625  0.50810439     0.10500
S779        S  0.23272300  0.45500582  0.48536360    -0.32900
S780        S  0.14034202  0.05361634  0.51619079    -0.32900
H781        H  0.16154442  0.06228865  0.52763366     0.28500
H782        H  0.21194890  0.44423027  0.47416028     0.28500
H783        H  0.22425161  0.47420204  0.51607906     0.19100
H784        H  0.14858155  0.03453789  0.48517591     0.19100
C785        C  0.06155158  0.25458575  0.48320318    -0.06700
C786        C  0.58686547  0.23789417  0.49064359    -0.17900
C787        C  0.58809188  0.23408312  0.50670699     0.10500
C788        C  0.06496802  0.24864732  0.51603553    -0.06700
C789        C  0.03986904  0.26324508  0.50885214    -0.17900
C790        C  0.03755633  0.26584826  0.49271725     0.10500
S791        S  0.61761231  0.20934826  0.51405982    -0.32900
S792        S  0.00390919  0.28416399  0.48464307    -0.32900
H793        H  0.98767374  0.28828712  0.49846198     0.28500
H794        H  0.59732981  0.19403040  0.52407003     0.28500
H795        H  0.60474300  0.22758456  0.48366558     0.19100
H796        H  0.02179113  0.27268436  0.51597094     0.19100
C797        C  0.56355202  0.41083228  0.43541861    -0.06700
C798        C  0.54140708  0.39550158  0.44429054    -0.17900
C799        C  0.54007617  0.36344613  0.44484069     0.10500
C800        C  0.56085563  0.34573503  0.43603854    -0.06700
C801        C  0.08032833  0.36228255  0.42635937    -0.17900
C802        C  0.08198135  0.39444982  0.42590124     0.10500
S803        S  0.51279272  0.34667152  0.45791144    -0.32900
S804        S  0.10940579  0.41145487  0.41287190    -0.32900
H805        H  0.08981014  0.43543065  0.40816986     0.28500
H806        H  0.53429729  0.32547529  0.46370463     0.28500
H807        H  0.52562014  0.40862305  0.45134877     0.19100
H808        H  0.09601402  0.34901305  0.41932139     0.19100
C809        C  0.55749855  0.09563863  0.43765916    -0.06700
C810        C  0.53497660  0.11151207  0.42924446    -0.17900
C811        C  0.53513131  0.14361983  0.42835602     0.10500
C812        C  0.55762495  0.16054861  0.43653374    -0.06700
C813        C  0.07990164  0.14615005  0.44547506    -0.17900
C814        C  0.07994617  0.11400534  0.44627008     0.10500
S815        S  0.50732105  0.16138811  0.41577862    -0.32900
S816        S  0.10717942  0.09619925  0.45916030    -0.32900
H817        H  0.08714754  0.07271102  0.46402045     0.28500
H818        H  0.52793087  0.18347409  0.40994375     0.28500
H819        H  0.51781411  0.09879016  0.42281811     0.19100
H820        H  0.09648096  0.15897878  0.45224048     0.19100
C821        C  0.07085928  0.50231376  0.48389975    -0.06700
C822        C  0.08696853  0.98659490  0.48982022    -0.17900
C823        C  0.08890055  0.98319604  0.50583866     0.10500
C824        C  0.07316939  0.49580164  0.51662256    -0.06700
C825        C  0.55185903  0.51402134  0.50952831    -0.17900
C826        C  0.55071123  0.51784525  0.49351907     0.10500
S827        S  0.11839510  0.95760323  0.51257665    -0.32900
S828        S  0.52284960  0.54470471  0.48606043    -0.32900
H829        H  0.52803238  0.05364585  0.47353024     0.28500
H830        H  0.12902445  0.97652914  0.52433566     0.28500
H831        H  0.10385288  0.97513619  0.48266270     0.19100
H832        H  0.53516556  0.52612820  0.51647900     0.19100
C833        C  0.23746788  0.27258929  0.23496633    -0.06700
C834        C  0.21869187  0.24802051  0.23984575    -0.17900
C835        C  0.21269416  0.24259450  0.25552794     0.10500
C836        C  0.22557751  0.26213406  0.26682593    -0.06700
C837        C  0.24453790  0.28644232  0.26200150    -0.17900
C838        C  0.25061397  0.29181701  0.24636863     0.10500
S839        S  0.18911935  0.20988284  0.26038706    -0.32900
S840        S  0.27646737  0.32280753  0.24181951    -0.32900
H841        H  0.29234971  0.30557665  0.23072431     0.28500
H842        H  0.20485440  0.20259604  0.27405124     0.28500
H843        H  0.20837863  0.23297166  0.23136019     0.19100
H844        H  0.25473235  0.30150278  0.27052490     0.19100
C845        C  0.19020393  0.24893126  0.39131236    -0.06700
C846        C  0.21207287  0.22998089  0.38412998    -0.17900
C847        C  0.21511984  0.22897623  0.36807104     0.10500
C848        C  0.19650095  0.24796685  0.35867246    -0.06700
C849        C  0.17402239  0.26634954  0.36578838    -0.17900
C850        C  0.17099639  0.26739424  0.38190538     0.10500
S851        S  0.24236673  0.20193447  0.36025902    -0.32900
S852        S  0.14367087  0.29430695  0.38974268    -0.32900
H853        H  0.16269045  0.30378762  0.40196212     0.28500
H854        H  0.22436980  0.19425339  0.34735394     0.28500
H855        H  0.22663837  0.21531148  0.39110128     0.19100
H856        H  0.15965595  0.28114644  0.35878451     0.19100
C857        C  0.20985779  0.34671772  0.31391921    -0.06700
C858        C  0.23328780  0.36202637  0.32206717    -0.17900
C859        C  0.23486014  0.39423711  0.32253188     0.10500
C860        C  0.21238200  0.41169377  0.31466932    -0.06700
C861        C  0.18868888  0.39636707  0.30677500    -0.17900
C862        C  0.18752997  0.36435829  0.30601826     0.10500
S863        S  0.26477082  0.41245480  0.33379344    -0.32900
S864        S  0.15808262  0.34787512  0.29393177    -0.32900
H865        H  0.17837989  0.32751115  0.28651796     0.28500
H866        H  0.27890693  0.38543955  0.33917132     0.28500
H867        H  0.25029206  0.34865922  0.32821246     0.19100
H868        H  0.17146965  0.40944995  0.30059062     0.19100
C869        C  0.20968885  0.09624218  0.31054038    -0.06700
C870        C  0.23769086  0.11197544  0.30862564    -0.17900
C871        C  0.23909035  0.14407373  0.30826795     0.10500
C872        C  0.21186792  0.16153167  0.31026245    -0.06700
C873        C  0.18381980  0.14583103  0.31218051    -0.17900
C874        C  0.18229511  0.11361234  0.31240307     0.10500
S875        S  0.27634830  0.16089752  0.30473668    -0.32900
S876        S  0.14528828  0.09561281  0.31581826    -0.32900
H877        H  0.12751929  0.12254855  0.31671929     0.28500
H878        H  0.26543870  0.18070303  0.29315292     0.28500
H879        H  0.25884103  0.09913684  0.30709332     0.19100
H880        H  0.16291869  0.15893812  0.31384135     0.19100
C881        C  0.22506919  0.99263039  0.26631944    -0.06700
C882        C  0.24918794  0.00811528  0.25873494    -0.17900
C883        C  0.25581564  0.00287988  0.24305943     0.10500
C884        C  0.23816732  0.98141267  0.23451057    -0.06700
C885        C  0.21731966  0.46517075  0.24215490    -0.17900
C886        C  0.21174112  0.46927461  0.25794312     0.10500
S887        S  0.28773535  0.02362441  0.23482662    -0.32900
S888        S  0.18690810  0.44182454  0.26725704    -0.32900
H889        H  0.20520661  0.43952944  0.28054060     0.28500
H890        H  0.29701630  0.99998698  0.22485612     0.28500
H891        H  0.26309726  0.02444332  0.26508680     0.19100
H892        H  0.20580792  0.44663431  0.23622695     0.19100
C893        C  0.19953868  0.00701278  0.35876938    -0.06700
C894        C  0.22408701  0.49462476  0.36728533    -0.17900
C895        C  0.22150092  0.49153370  0.38327252     0.10500
C896        C  0.19466267  0.50176251  0.39100441    -0.06700
C897        C  0.17031605  0.01293722  0.38266576    -0.17900
C898        C  0.17228444  0.01586984  0.36655264     0.10500
S899        S  0.25276230  0.47245700  0.39293236    -0.32900
S900        S  0.13986771  0.03285473  0.35681768    -0.32900
H901        H  0.15801726  0.05152381  0.34720188     0.28500
H902        H  0.23278376  0.45477199  0.40201160     0.28500
H903        H  0.24465106  0.48596699  0.36174553     0.19100
H904        H  0.14923055  0.01975813  0.38833694     0.19100
C905        C  0.02326046  0.25898679  0.26465968    -0.06700
C906        C  0.03900680  0.28226112  0.25669519    -0.17900
C907        C  0.03298747  0.28837270  0.24110468     0.10500
C908        C  0.01046138  0.27101605  0.23308000    -0.06700
C909        C  0.49261456  0.24744923  0.24137510    -0.17900
C910        C  0.49844095  0.24126564  0.25698008     0.10500
S911        S  0.05562425  0.31795481  0.23201533    -0.32900
S912        S  0.47544755  0.21193325  0.26605851    -0.32900
H913        H  0.49939955  0.20046727  0.27533219     0.28500
H914        H  0.06057357  0.30116917  0.21846302     0.28500
H915        H  0.05589372  0.29612346  0.26272729     0.19100
H916        H  0.47444308  0.23494333  0.23552796     0.19100
C917        C  0.04742847  0.25275073  0.35700650    -0.06700
C918        C  0.07280638  0.23841530  0.36406074    -0.17900
C919        C  0.07591209  0.23730714  0.38017734     0.10500
C920        C  0.05368956  0.25170691  0.38969850    -0.06700
C921        C  0.52924952  0.26467137  0.38280592    -0.17900
C922        C  0.52580024  0.26561128  0.36679049     0.10500
S923        S  0.10754733  0.21531675  0.38780059    -0.32900
S924        S  0.49325316  0.28679378  0.35948085    -0.32900
H925        H  0.51011779  0.30150118  0.34778733     0.28500
H926        H  0.09003491  0.20154512  0.39953259     0.28500
H927        H  0.08979434  0.22692139  0.35699027     0.19100
H928        H  0.51204359  0.27585842  0.38986226     0.19100
C929        C  0.53563001  0.34334377  0.31302047    -0.06700
C930        C  0.50880766  0.35879263  0.30837069    -0.17900
C931        C  0.50744251  0.39086793  0.30797863     0.10500
C932        C  0.53320006  0.40829895  0.31280863    -0.06700
C933        C  0.05996822  0.39398974  0.31875166    -0.17900
C934        C  0.06102512  0.36187584  0.31915554     0.10500
S935        S  0.47285962  0.40785029  0.30026276    -0.32900
S936        S  0.09379415  0.34448245  0.32846250    -0.32900
H937        H  0.07647607  0.32163236  0.33598168     0.28500
H938        H  0.48848990  0.42979113  0.29129654     0.28500
H939        H  0.48900845  0.34577961  0.30445510     0.19100
H940        H  0.07890222  0.40695356  0.32363626     0.19100
C941        C  0.53301747  0.09305987  0.31107937    -0.06700
C942        C  0.55618848  0.10791499  0.30257034    -0.17900
C943        C  0.55785896  0.14007726  0.30172395     0.10500
C944        C  0.53602105  0.15819772  0.30970160    -0.06700
C945        C  0.01290668  0.14496679  0.31835823    -0.17900
C946        C  0.01127269  0.11294803  0.31944370     0.10500
S947        S  0.58752293  0.15628099  0.28971991    -0.32900
S948        S  0.98348701  0.09732800  0.33270125    -0.32900
H949        H  0.00386641  0.07535515  0.33881951     0.28500
H950        H  0.56809705  0.17836963  0.28296792     0.28500
H951        H  0.57269052  0.09437836  0.29615541     0.19100
H952        H  0.99672391  0.15859859  0.32492986     0.19100
C953        C  0.01639499  0.49306779  0.26684159    -0.06700
C954        C  0.49084749  0.01039351  0.25807148    -0.17900
C955        C  0.48433065  0.00589460  0.24234802     0.10500
C956        C  0.00211959  0.48410817  0.23514867    -0.06700
C957        C  0.02603264  0.46764541  0.24225779    -0.17900
C958        C  0.03329677  0.47180823  0.25786209     0.10500
S959        S  0.45694377  0.03147813  0.23348863    -0.32900
S960        S  0.06386910  0.44853017  0.26566872    -0.32900
H961        H  0.04854609  0.44198465  0.27950160     0.28500
H962        H  0.44332987  0.00880105  0.22416362     0.28500
H963        H  0.47998395  0.02925071  0.26410626     0.19100
H964        H  0.03949899  0.45160028  0.23553301     0.19100
C965        C  0.05822368  0.50811894  0.39086510    -0.06700
C966        C  0.07947270  0.49220046  0.38163639    -0.17900
C967        C  0.07543918  0.48974320  0.36561190     0.10500
C968        C  0.05009712  0.50438334  0.35837285    -0.06700
C969        C  0.52537489  0.02062579  0.36654246    -0.17900
C970        C  0.52914792  0.02267277  0.38250336     0.10500
S971        S  0.10209468  0.46565926  0.35530013    -0.32900
S972        S  0.50394817  0.04852472  0.39265424    -0.32900
H973        H  0.52684039  0.05891962  0.40285645     0.28500
H974        H  0.07959448  0.45241820  0.34571497     0.28500
H975        H  0.09858212  0.48032708  0.38701419     0.19100
H976        H  0.50716606  0.03375877  0.36113418     0.19100
C977        C  0.25968070  0.29651417  0.85838579    -0.06700
C978        C  0.24195168  0.32119114  0.86396247    -0.17900
C979        C  0.23648081  0.32518047  0.87977233     0.10500
C980        C  0.24986094  0.30478668  0.89053049    -0.06700
C981        C  0.26797515  0.28046750  0.88495673    -0.17900
C982        C  0.27292826  0.27600666  0.86914360     0.10500
S983        S  0.21004013  0.35491688  0.88535309    -0.32900
S984        S  0.29741121  0.24476634  0.86302815    -0.32900
H985        H  0.29937512  0.22982862  0.87733826     0.28500
H986        H  0.19577396  0.33673732  0.89663881     0.28500
H987        H  0.23096315  0.33668236  0.85589625     0.19100
H988        H  0.27875919  0.26505085  0.89310809     0.19100
C989        C  0.25550912  0.94568884  0.85716516    -0.06700
C990        C  0.24220315  0.96957575  0.86572708    -0.17900
C991        C  0.23847582  0.96769996  0.88167994     0.10500
C992        C  0.24891925  0.94153743  0.88987318    -0.06700
C993        C  0.26057387  0.41552864  0.88113350    -0.17900
C994        C  0.26443243  0.41777042  0.86506718     0.10500
S995        S  0.21824930  0.99891002  0.89065508    -0.32900
S996        S  0.28695309  0.38848964  0.85574538    -0.32900
H997        H  0.30198510  0.40880439  0.84564474     0.28500
H998        H  0.20020897  0.97882711  0.89948438     0.28500
H999        H  0.23358984  0.98979170  0.85985992     0.19100
H1000       H  0.27103044  0.39646592  0.88720285     0.19100
C1001       C  0.41651185  0.28324896  0.80985286    -0.06700
C1002       C  0.40078895  0.25676804  0.80498127    -0.17900
C1003       C  0.36857703  0.25592127  0.80419213     0.10500
C1004       C  0.35126384  0.28181451  0.80888491    -0.06700
C1005       C  0.36705012  0.30856154  0.81334379    -0.17900
C1006       C  0.39921753  0.30951236  0.81402754     0.10500
S1007       S  0.35126635  0.22166944  0.79636596    -0.32900
S1008       S  0.41641087  0.34437012  0.82127473    -0.32900
H1009       H  0.43722761  0.32909993  0.83105188     0.28500
H1010       H  0.32892651  0.23757741  0.78774515     0.28500
H1011       H  0.41372328  0.23675345  0.80138789     0.19100
H1012       H  0.35422079  0.32862452  0.81696245     0.19100
C1013       C  0.16638999  0.28259050  0.81494183    -0.06700
C1014       C  0.15117445  0.30308762  0.80510625    -0.17900
C1015       C  0.11919769  0.30334607  0.80396229     0.10500
C1016       C  0.10156558  0.28331271  0.81323249    -0.06700
C1017       C  0.11668183  0.26301091  0.82325709    -0.17900
C1018       C  0.14894269  0.26251332  0.82429128     0.10500
S1019       S  0.10260606  0.32830306  0.78965012    -0.32900
S1020       S  0.16727298  0.23745990  0.83812881    -0.32900
H1021       H  0.14021944  0.22418534  0.84404396     0.28500
H1022       H  0.08106622  0.30639822  0.78459784     0.28500
H1023       H  0.16436567  0.31825520  0.79772823     0.19100
H1024       H  0.10311494  0.24792020  0.83047183     0.19100
C1025       C  0.00608063  0.29886623  0.85749970    -0.06700
C1026       C  0.48870955  0.32138122  0.86391057    -0.17900
C1027       C  0.48566448  0.32540926  0.87991470     0.10500
C1028       C  0.00014340  0.30572028  0.88994697    -0.06700
C1029       C  0.01832668  0.28228988  0.88360871    -0.17900
C1030       C  0.02189070  0.27897906  0.86769807     0.10500
S1031       S  0.46051475  0.35559167  0.88645787    -0.32900
S1032       S  0.04811750  0.24963621  0.86121534    -0.32900
H1033       H  0.06043073  0.26744324  0.84919869     0.28500
H1034       H  0.44767130  0.33846521  0.89857445     0.28500
H1035       H  0.47618395  0.33648655  0.85624205     0.19100
H1036       H  0.03060140  0.26669465  0.89118086     0.19100
C1037       C  0.34548357  0.45817397  0.80888351    -0.06700
C1038       C  0.36262335  0.98440843  0.81465413    -0.17900
C1039       C  0.39474445  0.98546038  0.81556411     0.10500
C1040       C  0.41242490  0.96104431  0.80944463    -0.06700
C1041       C  0.39549067  0.43414754  0.80486887    -0.17900
C1042       C  0.36335827  0.43275210  0.80395479     0.10500
S1043       S  0.41126345  0.01767883  0.82565123    -0.32900
S1044       S  0.34723592  0.39780763  0.79623543    -0.32900
H1045       H  0.32672936  0.41298957  0.78634706     0.28500
H1046       H  0.43071848  0.99933583  0.83479137     0.28500
H1047       H  0.34958521  0.00318489  0.81960067     0.19100
H1048       H  0.40865720  0.41447125  0.80099734     0.19100
C1049       C  0.09740563  0.95871776  0.81166690    -0.06700
C1050       C  0.11143493  0.47564356  0.82252740    -0.17900
C1051       C  0.14353508  0.47574635  0.82316616     0.10500
C1052       C  0.16041164  0.45659131  0.81314097    -0.06700
C1053       C  0.14640463  0.93980901  0.80227216    -0.17900
C1054       C  0.11431518  0.94024621  0.80134628     0.10500
S1055       S  0.16135886  0.49952703  0.83760359    -0.32900
S1056       S  0.09660714  0.91860109  0.78602366    -0.32900
H1057       H  0.07462731  0.94124251  0.78245527     0.28500
H1058       H  0.18337714  0.47730318  0.84168575     0.28500
H1059       H  0.09869114  0.49017080  0.83037266     0.19100
H1060       H  0.15920899  0.92579740  0.79423024     0.19100
C1061       C  0.99738653  0.43771738  0.89088308    -0.06700
C1062       C  0.51219571  0.41594682  0.88229075    -0.17900
C1063       C  0.51330788  0.41783827  0.86608967     0.10500
C1064       C  0.99984898  0.44233008  0.85805699    -0.06700
C1065       C  0.98456785  0.96691407  0.86620155    -0.17900
C1066       C  0.98223296  0.96438492  0.88225740     0.10500
S1067       S  0.53473893  0.38867992  0.85610320    -0.32900
S1068       S  0.95801710  0.99192767  0.89185845    -0.32900
H1069       H  0.94517875  0.97027032  0.90200271     0.28500
H1070       H  0.50933400  0.37920978  0.84726565     0.28500
H1071       H  0.52357117  0.39694590  0.88800066     0.19100
H1072       H  0.97289149  0.98573825  0.86050268     0.19100
C1073       C  0.23798921  0.25958134  0.73457454    -0.06700
C1074       C  0.21989072  0.24348228  0.74527224    -0.17900
C1075       C  0.22416271  0.24723339  0.76119496     0.10500
C1076       C  0.24742356  0.26721822  0.76676574    -0.06700
C1077       C  0.26527186  0.28352259  0.75608915    -0.17900
C1078       C  0.26069985  0.28018353  0.74020168     0.10500
S1079       S  0.19808588  0.22712114  0.77378242    -0.32900
S1080       S  0.28349908  0.30430228  0.72778176    -0.32900
H1081       H  0.25881850  0.31184054  0.71800010     0.28500
H1082       H  0.19454264  0.25175792  0.78407349     0.28500
H1083       H  0.20209923  0.22800532  0.74120631     0.19100
H1084       H  0.28276647  0.29932938  0.76016720     0.19100
C1085       C  0.21131536  0.25184189  0.64250771    -0.06700
C1086       C  0.18600010  0.23693064  0.63568379    -0.17900
C1087       C  0.18186827  0.23655697  0.61962585     0.10500
C1088       C  0.20250009  0.25291378  0.60999834    -0.06700
C1089       C  0.22782620  0.26766117  0.61684737    -0.17900
C1090       C  0.23237994  0.26745973  0.63280411     0.10500
S1091       S  0.15143399  0.21262895  0.61215365    -0.32900
S1092       S  0.26486244  0.28895082  0.63999672    -0.32900
H1093       H  0.24839640  0.30245775  0.65215589     0.28500
H1094       H  0.16853640  0.20170225  0.59956957     0.28500
H1095       H  0.16999256  0.22433169  0.64286464     0.19100
H1096       H  0.24398658  0.28018251  0.60971603     0.19100
C1097       C  0.22030190  0.40841256  0.68775484    -0.06700
C1098       C  0.19326453  0.39204318  0.68439327    -0.17900
C1099       C  0.19308160  0.35995307  0.68372485     0.10500
C1100       C  0.22050047  0.34343424  0.68685311    -0.06700
C1101       C  0.24750683  0.35982010  0.69019294    -0.17900
C1102       C  0.24767175  0.39184657  0.69091099     0.10500
S1103       S  0.15740783  0.34188345  0.67811941    -0.32900
S1104       S  0.28318345  0.40970107  0.69688954    -0.32900
H1105       H  0.26865810  0.42976612  0.70722341     0.28500
H1106       H  0.17148655  0.32117354  0.66789264     0.28500
H1107       H  0.17216353  0.40436780  0.68184377     0.19100
H1108       H  0.26857780  0.34753909  0.69285102     0.19100
C1109       C  0.22533562  0.15838813  0.68983983    -0.06700
C1110       C  0.19829312  0.14339407  0.69467541    -0.17900
C1111       C  0.19603338  0.11126126  0.69520725     0.10500
C1112       C  0.22170830  0.09318083  0.69086606    -0.06700
C1113       C  0.24891737  0.10819454  0.68629269    -0.17900
C1114       C  0.25091555  0.14023297  0.68550273     0.10500
S1115       S  0.16040688  0.09429478  0.70190798    -0.32900
S1116       S  0.28639333  0.15603594  0.67823631    -0.32900
H1117       H  0.27159563  0.17448084  0.66717791     0.28500
H1118       H  0.14278036  0.12137444  0.70228736     0.28500
H1119       H  0.17866010  0.15700754  0.69820394     0.19100
H1120       H  0.26877506  0.09482519  0.68278217     0.19100
C1121       C  0.24535863  0.97499872  0.76523795    -0.06700
C1122       C  0.22617337  0.99965726  0.76094424    -0.17900
C1123       C  0.22087932  0.00704879  0.74543713     0.10500
C1124       C  0.23504214  0.98949579  0.73376864    -0.06700
C1125       C  0.25809510  0.47055502  0.73841111    -0.17900
C1126       C  0.26336034  0.46266493  0.75385569     0.10500
S1127       S  0.19661014  0.03965477  0.74132995    -0.32900
S1128       S  0.29467386  0.43689093  0.75797665    -0.32900
H1129       H  0.30454604  0.45321347  0.77103759     0.28500
H1130       H  0.21261439  0.04910494  0.72809710     0.28500
H1131       H  0.21512959  0.01333489  0.76975667     0.19100
H1132       H  0.27226610  0.46020910  0.72963871     0.19100
C1133       C  0.19592449  0.50309485  0.61009869    -0.06700
C1134       C  0.17671130  0.02019553  0.61944924    -0.17900
C1135       C  0.18054779  0.02129008  0.63550008     0.10500
C1136       C  0.20209058  0.50371970  0.64272893    -0.06700
C1137       C  0.22363382  0.48854828  0.63340899    -0.17900
C1138       C  0.22053477  0.48749155  0.61739280     0.10500
S1139       S  0.15313621  0.04352959  0.64633975    -0.32900
S1140       S  0.24794084  0.46426944  0.60706265    -0.32900
H1141       H  0.22617707  0.45226487  0.59667362     0.28500
H1142       H  0.17507951  0.05587854  0.65653869     0.28500
H1143       H  0.15743150  0.03215578  0.61428584     0.19100
H1144       H  0.24281289  0.47660588  0.63869814     0.19100
C1145       C  0.01647829  0.26828759  0.76561540    -0.06700
C1146       C  0.03648865  0.28696255  0.75701502    -0.17900
C1147       C  0.04252583  0.28108216  0.74143012     0.10500
C1148       C  0.02853824  0.25572322  0.73398214    -0.06700
C1149       C  0.50965002  0.23498163  0.74260351    -0.17900
C1150       C  0.50338539  0.24035606  0.75825801     0.10500
S1151       S  0.06713088  0.30775171  0.73145337    -0.32900
S1152       S  0.47694082  0.21449405  0.76762566    -0.32900
H1153       H  0.46200089  0.23756617  0.77613598     0.28500
H1154       H  0.04804016  0.30927832  0.71843444     0.28500
H1155       H  0.04764109  0.30639197  0.76246992     0.19100
H1156       H  0.49926097  0.21532647  0.73696756     0.19100
C1157       C  0.05564963  0.23742554  0.64222711    -0.06700
C1158       C  0.07953305  0.25474262  0.63552654    -0.17900
C1159       C  0.08242033  0.25757789  0.61945366     0.10500
C1160       C  0.06181811  0.24167499  0.60961740    -0.06700
C1161       C  0.54006672  0.22304986  0.61661638    -0.17900
C1162       C  0.53715976  0.22054806  0.63263391     0.10500
S1163       S  0.11114516  0.28390440  0.61232779    -0.32900
S1164       S  0.50844366  0.19430806  0.63985599    -0.32900
H1165       H  0.52600180  0.18447351  0.65254229     0.28500
H1166       H  0.09264847  0.29576100  0.60044066     0.28500
H1167       H  0.09508628  0.26757696  0.64286377     0.19100
H1168       H  0.52475304  0.20973207  0.60936605     0.19100
C1169       C  0.04493071  0.40018033  0.68720814    -0.06700
C1170       C  0.51787982  0.38501145  0.68155257    -0.17900
C1171       C  0.51671908  0.35291273  0.68058882     0.10500
C1172       C  0.54194772  0.33524926  0.68588601    -0.06700
C1173       C  0.06806530  0.35038321  0.69243182    -0.17900
C1174       C  0.06908209  0.38236302  0.69357536     0.10500
S1175       S  0.48283210  0.33632272  0.67196370    -0.32900
S1176       S  0.10106709  0.39841793  0.70409920    -0.32900
H1177       H  0.08233248  0.41716798  0.71336673     0.28500
H1178       H  0.49953098  0.31607858  0.66252031     0.28500
H1179       H  0.49838885  0.39809924  0.67734096     0.19100
H1180       H  0.08660167  0.33721518  0.69755597     0.19100
C1181       C  0.04274246  0.08506843  0.69067476    -0.06700
C1182       C  0.06839527  0.10113558  0.68498580    -0.17900
C1183       C  0.06891661  0.13326160  0.68440100     0.10500
C1184       C  0.54628700  0.15013541  0.69050778    -0.06700
C1185       C  0.51903087  0.13419830  0.69401183    -0.17900
C1186       C  0.51804974  0.10207018  0.69451112     0.10500
S1187       S  0.10170074  0.15094873  0.67525285    -0.32900
S1188       S  0.48226351  0.08475977  0.70044028    -0.32900
H1189       H  0.49637961  0.06335538  0.71032514     0.28500
H1190       H  0.08407046  0.17230943  0.66687380     0.28500
H1191       H  0.08779942  0.08855158  0.68036281     0.19100
H1192       H  0.49829409  0.14690469  0.69672792     0.19100
C1193       C  0.53022222  0.98144932  0.73326394    -0.06700
C1194       C  0.04023642  0.00347796  0.74409388    -0.17900
C1195       C  0.03448555  0.00000764  0.75992131     0.10500
C1196       C  0.01434613  0.47425090  0.76639675    -0.06700
C1197       C  0.50267839  0.45457737  0.75566479    -0.17900
C1198       C  0.50856283  0.45822797  0.73988954     0.10500
S1199       S  0.05158586  0.02809846  0.77251260    -0.32900
S1200       S  0.49347210  0.42942286  0.72705775    -0.32900
H1201       H  0.52027909  0.42783967  0.71806462     0.28500
H1202       H  0.06362465  0.00603258  0.78270899     0.28500
H1203       H  0.05319950  0.02320757  0.74011818     0.19100
H1204       H  0.48870005  0.43535714  0.75940846     0.19100
C1205       C  0.06420312  0.49822362  0.61013407    -0.06700
C1206       C  0.08667523  0.48362486  0.61926515    -0.17900
C1207       C  0.08407985  0.48219084  0.63541687     0.10500
C1208       C  0.55890791  0.99652157  0.64148054    -0.06700
C1209       C  0.53802333  0.01358435  0.63256688    -0.17900
C1210       C  0.54029934  0.01493140  0.61649901     0.10500
S1211       S  0.11245714  0.45983015  0.64559221    -0.32900
S1212       S  0.51366757  0.03983341  0.60660027    -0.32900
H1213       H  0.53536741  0.05053478  0.59584660     0.28500
H1214       H  0.09100384  0.44540014  0.65533178     0.28500
H1215       H  0.10576562  0.47204207  0.61374503     0.19100
H1216       H  0.51998187  0.02651951  0.63820032     0.19100
O1217       O  0.06222717  0.99065705  0.71135502    -0.72400
O1218       O  0.07600479  0.49507639  0.66952273    -0.72600
O1219       O  0.06769306  0.53640136  0.69246454    -0.72500
O1220       O  0.07019352  0.94967460  0.68856129    -0.72500
O1221       O  0.52135237  0.94881264  0.68379937    -0.72400
O1222       O  0.51807861  0.53659040  0.68873488    -0.72500
O1223       O  0.52748666  0.99594980  0.66407579    -0.72400
O1224       O  0.51096931  0.48900661  0.70842605    -0.72600
V1225       V  0.06737078  0.49287327  0.69113276     1.35200
V1226       V  0.51952927  0.49297891  0.68703592     1.35200
C1227       C  0.53292841  0.48816988  0.71798088     0.76800
C1228       C  0.55305350  0.49575118  0.65999427     0.76900
C1229       C  0.04277531  0.55119534  0.69114467     0.76800
C1230       C  0.04614680  0.93427762  0.68589123     0.76700
O1231       O  0.51027717  0.74666860  0.70824823    -0.72400
O1232       O  0.52513393  0.73907463  0.66518316    -0.72600
O1233       O  0.51798989  0.69906024  0.68851969    -0.72500
O1234       O  0.51787821  0.78622944  0.68479458    -0.72500
O1235       O  0.06870961  0.78678625  0.68834242    -0.72400
O1236       O  0.06832211  0.70046202  0.69350922    -0.72500
O1237       O  0.07636970  0.73903849  0.66943414    -0.72400
O1238       O  0.06026448  0.74949035  0.71245230    -0.72600
V1239       V  0.51876055  0.74268807  0.68679330     1.35200
V1240       V  0.06744530  0.74375443  0.69089025     1.35200
C1241       C  0.03288705  0.75097522  0.71748704     0.76800
C1242       C  0.05439058  0.73799041  0.65983378     0.76900
C1243       C  0.54285280  0.68470980  0.69099138     0.76800
C1244       C  0.54276385  0.80123563  0.68584604     0.76700
O1245       O  0.23459040  0.50374653  0.66496422    -0.72400
O1246       O  0.25194920  0.99581662  0.70781244    -0.72600
O1247       O  0.24461207  0.95742408  0.68417395    -0.72500
O1248       O  0.24196592  0.54483700  0.68770770    -0.72500
O1249       O  0.19272812  0.54387191  0.69180703    -0.72400
O1250       O  0.19567003  0.95677212  0.68910066    -0.72500
O1251       O  0.20128882  0.49811610  0.71241586    -0.72400
O1252       O  0.18873909  0.00289812  0.66862164    -0.72600
V1253       V  0.24410089  0.00061539  0.68638773     1.35200
V1254       V  0.19671358  0.00042247  0.69014788     1.35200
C1255       C  0.21104475  0.00503345  0.65933725     0.76800
C1256       C  0.22963533  0.99502779  0.71714971     0.76900
C1257       C  0.22030429  0.94218962  0.68643907     0.76800
C1258       C  0.21715651  0.55929608  0.69001004     0.76700
O1259       O  0.20218595  0.75342796  0.71104207    -0.72400
O1260       O  0.18858993  0.74916789  0.66759744    -0.72600
O1261       O  0.19548031  0.70745713  0.69036157    -0.72500
O1262       O  0.19488265  0.79441245  0.68825440    -0.72500
O1263       O  0.24422721  0.79451788  0.68443181    -0.72400
O1264       O  0.24485052  0.70736639  0.68652975    -0.72500
O1265       O  0.23799046  0.74930663  0.66393603    -0.72400
O1266       O  0.25150354  0.75350338  0.70714626    -0.72600
V1267       V  0.19624485  0.75097870  0.68926412     1.35200
V1268       V  0.24368381  0.75101791  0.68561379     1.35200
C1269       C  0.22924485  0.75539765  0.71646990     0.76800
C1270       C  0.21109540  0.74978958  0.65832996     0.76900
C1271       C  0.22012117  0.69249265  0.68852373     0.76800
C1272       C  0.21931930  0.80932096  0.68576782     0.76700
O1273       O  0.50798637  0.49087811  0.79295531    -0.72400
O1274       O  0.00116385  0.47452101  0.83566741    -0.72600
O1275       O  0.04734602  0.48114891  0.81536850    -0.72500
O1276       O  0.46057398  0.48427479  0.81277063    -0.72500
O1277       O  0.46121444  0.93573572  0.80842677    -0.72400
O1278       O  0.04846850  0.93448285  0.80950018    -0.72500
O1279       O  0.50368832  0.92786867  0.83073352    -0.72400
O1280       O  0.00664297  0.94242288  0.78741275    -0.72600
V1281       V  0.00384729  0.48133788  0.81406762     1.35200
V1282       V  0.00494362  0.93615154  0.80918875     1.35200
C1283       C  0.01041926  0.96934226  0.78212441     0.76800
C1284       C  0.00260340  0.95020762  0.84028061     0.76900
C1285       C  0.06176988  0.45656746  0.81263622     0.76800
C1286       C  0.44507683  0.45996051  0.81094848     0.76700
O1287       O  0.50700332  0.80338774  0.78801118    -0.72400
O1288       O  0.00048251  0.81480569  0.83165942    -0.72600
O1289       O  0.04686830  0.80925694  0.81142507    -0.72500
O1290       O  0.46006780  0.80998140  0.80831246    -0.72500
O1291       O  0.45922180  0.76077768  0.81240247    -0.72400
O1292       O  0.04657681  0.75962493  0.81381942    -0.72500
O1293       O  0.50143487  0.76653588  0.83494020    -0.72400
O1294       O  0.00454809  0.75412464  0.79125801    -0.72600
V1295       V  0.00354363  0.80837558  0.80987093     1.35200
V1296       V  0.00274584  0.76086978  0.81288824     1.35200
C1297       C  0.00717877  0.77670219  0.78218744     0.76800
C1298       C  0.00049076  0.79182626  0.84065988     0.76900
C1299       C  0.06163178  0.78446311  0.81271238     0.76800
C1300       C  0.44473064  0.78562183  0.81020317     0.76700
O1301       O  0.25535624  0.92717932  0.83074533    -0.72400
O1302       O  0.25252626  0.94144260  0.78718432    -0.72600
O1303       O  0.29781225  0.93397968  0.80826558    -0.72500
O1304       O  0.21062154  0.93414247  0.80953372    -0.72500
O1305       O  0.20918317  0.48161320  0.81476374    -0.72400
O1306       O  0.29631187  0.48251196  0.81152454    -0.72500
O1307       O  0.24905925  0.49013003  0.79181867    -0.72400
O1308       O  0.25559090  0.47464559  0.83460501    -0.72600
V1309       V  0.25417955  0.93508316  0.80900325     1.35200
V1310       V  0.25267297  0.48124257  0.81309434     1.35200
C1311       C  0.25429866  0.44770001  0.84001366     0.76800
C1312       C  0.24903503  0.46853201  0.78213583     0.76900
C1313       C  0.31292818  0.95872005  0.80910021     0.76800
C1314       C  0.19602052  0.95852642  0.81243758     0.76700
O1315       O  0.25816761  0.76846031  0.83463777    -0.72400
O1316       O  0.24811096  0.75331282  0.79169829    -0.72600
O1317       O  0.29682863  0.76071919  0.81073759    -0.72500
O1318       O  0.21012198  0.76088127  0.81561556    -0.72500
O1319       O  0.20907788  0.80931131  0.80975482    -0.72400
O1320       O  0.29645002  0.81031864  0.80817137    -0.72500
O1321       O  0.25103677  0.80234695  0.78730206    -0.72400
O1322       O  0.25396832  0.81744863  0.83054961    -0.72600
V1323       V  0.25340983  0.76178100  0.81308771     1.35200
V1324       V  0.25272103  0.80894807  0.80900848     1.35200
C1325       C  0.25672263  0.79547884  0.84000471     0.76800
C1326       C  0.24770162  0.77531373  0.78216744     0.76900
C1327       C  0.31155150  0.78551476  0.80890911     0.76800
C1328       C  0.19470730  0.78500962  0.81329180     0.76700
O1329       O  0.51674297  0.50178988  0.33650760    -0.72400
O1330       O  0.49604575  0.99973195  0.29222667    -0.72600
O1331       O  0.50276419  0.95774684  0.31469766    -0.72500
O1332       O  0.50894373  0.54441289  0.31455727    -0.72500
O1333       O  0.05776940  0.54558117  0.30942955    -0.72400
O1334       O  0.05037759  0.95741086  0.31036643    -0.72500
O1335       O  0.05019677  0.49962081  0.28862590    -0.72400
O1336       O  0.06023018  0.00237470  0.33082131    -0.72600
V1337       V  0.50522575  0.00136555  0.31370016     1.35200
V1338       V  0.05097612  0.00076366  0.30933729     1.35200
C1339       C  0.03842613  0.00348419  0.34046396     0.76800
C1340       C  0.01607249  0.99775400  0.28267567     0.76900
C1341       C  0.52692449  0.94198536  0.31282234     0.76800
C1342       C  0.53361788  0.55920026  0.31236015     0.76700
O1343       O  0.51373061  0.74920864  0.33594913    -0.72400
O1344       O  0.50229748  0.75098542  0.29241109    -0.72600
O1345       O  0.50922767  0.70644402  0.31364729    -0.72500
O1346       O  0.50675511  0.79345346  0.31479504    -0.72500
O1347       O  0.05455191  0.79638644  0.31189220    -0.72400
O1348       O  0.05672360  0.70931703  0.30917805    -0.72500
O1349       O  0.05001847  0.75589954  0.28879969    -0.72400
O1350       O  0.06135613  0.75052223  0.33234176    -0.72600
V1351       V  0.50897693  0.74997271  0.31412879     1.35200
V1352       V  0.05471238  0.75289696  0.31060572     1.35200
C1353       C  0.03849988  0.75051127  0.34139597     0.76800
C1354       C  0.02332161  0.75548407  0.28290418     0.76900
C1355       C  0.53422974  0.69229120  0.31142144     0.76800
C1356       C  0.53122554  0.80912266  0.31398383     0.76700
O1357       O  0.22979308  0.00657687  0.33569150    -0.72400
O1358       O  0.24358031  0.50199185  0.29193094    -0.72600
O1359       O  0.23686114  0.54817520  0.31238900    -0.72500
O1360       O  0.23599185  0.96033987  0.31558550    -0.72500
O1361       O  0.18643286  0.95974387  0.31222875    -0.72400
O1362       O  0.18767822  0.54696165  0.30831647    -0.72500
O1363       O  0.19271589  0.99941781  0.28882412    -0.72400
O1364       O  0.18177962  0.50717883  0.33196416    -0.72600
V1365       V  0.23637918  0.50449538  0.31358155     1.35200
V1366       V  0.18886662  0.50358639  0.31028457     1.35200
C1367       C  0.20447601  0.50758425  0.34114845     0.76800
C1368       C  0.22102566  0.49875871  0.28283052     0.76900
C1369       C  0.21200272  0.56255971  0.30992067     0.76800
C1370       C  0.21116491  0.94524187  0.31451383     0.76700
O1371       O  0.19513156  0.75711727  0.28780032    -0.72400
O1372       O  0.18135177  0.75170977  0.33119122    -0.72600
O1373       O  0.18727659  0.79768127  0.31067887    -0.72500
O1374       O  0.18909922  0.71083897  0.30817789    -0.72500
O1375       O  0.23859740  0.71142937  0.31132830    -0.72400
O1376       O  0.23635221  0.79831906  0.31548704    -0.72500
O1377       O  0.23073435  0.75045536  0.33494571    -0.72400
O1378       O  0.24438109  0.75965243  0.29185091    -0.72600
V1379       V  0.18916059  0.75431259  0.30955092     1.35200
V1380       V  0.23656113  0.75490905  0.31333160     1.35200
C1381       C  0.22212244  0.75988821  0.28242859     0.76800
C1382       C  0.20378631  0.74975204  0.34048441     0.76900
C1383       C  0.21151824  0.81283420  0.31332960     0.76800
C1384       C  0.21416331  0.69618657  0.30914948     0.76700
O1385       O  0.54341865  0.50305107  0.46023327    -0.72400
O1386       O  0.53124127  0.00354583  0.41521102    -0.72600
O1387       O  0.53442387  0.95913573  0.43671940    -0.72500
O1388       O  0.54079169  0.54714060  0.43873974    -0.72500
O1389       O  0.09153912  0.54743035  0.43772792    -0.72400
O1390       O  0.08375512  0.96118055  0.43502641    -0.72500
O1391       O  0.08722826  0.50610014  0.41457543    -0.72400
O1392       O  0.08566031  0.00361953  0.45757503    -0.72600
V1393       V  0.53459382  0.00286076  0.43700107     1.35200
V1394       V  0.08248115  0.00475423  0.43566082     1.35200
C1395       C  0.06144204  0.00388526  0.46570279     0.76800
C1396       C  0.05512546  0.00615843  0.40690560     0.76900
C1397       C  0.55965312  0.94468044  0.43584080     0.76800
C1398       C  0.56593930  0.56177536  0.43864753     0.76700
O1399       O  0.54263733  0.75258735  0.46109787    -0.72400
O1400       O  0.53448808  0.75161451  0.41734932    -0.72600
O1401       O  0.53974805  0.70858164  0.43927176    -0.72500
O1402       O  0.53735717  0.79565148  0.43896739    -0.72500
O1403       O  0.08595204  0.79858563  0.43625132    -0.72400
O1404       O  0.08975371  0.71130687  0.43658206    -0.72500
O1405       O  0.08340736  0.75415667  0.41445134    -0.72400
O1406       O  0.09209244  0.75516546  0.45839434    -0.72600
V1407       V  0.53955726  0.75215008  0.43914971     1.35200
V1408       V  0.08686110  0.75485742  0.43646694     1.35200
C1409       C  0.06862498  0.75469364  0.46704777     0.76800
C1410       C  0.05703377  0.75219009  0.40820582     0.76900
C1411       C  0.56496941  0.69435800  0.43798302     0.76800
C1412       C  0.56174486  0.81136656  0.43801461     0.76700
O1413       O  0.21574544  0.50319427  0.41659664    -0.72400
O1414       O  0.20951217  0.99637029  0.46092109    -0.72600
O1415       O  0.21359678  0.95598072  0.43749563    -0.72500
O1416       O  0.21150695  0.54418113  0.43966555    -0.72500
O1417       O  0.16186991  0.54224074  0.43673139    -0.72400
O1418       O  0.16360089  0.95520152  0.43729281    -0.72500
O1419       O  0.16153852  0.49940952  0.45910595    -0.72400
O1420       O  0.16632781  0.99899723  0.41526387    -0.72600
V1421       V  0.21169124  0.99956000  0.43910687     1.35200
V1422       V  0.16385842  0.99884892  0.43729660     1.35200
C1423       C  0.19240839  0.00134745  0.40878079     0.76800
C1424       C  0.18363063  0.99744872  0.46757401     0.76900
C1425       C  0.18881835  0.94070903  0.43699595     0.76800
C1426       C  0.18602459  0.55804341  0.43852452     0.76700
O1427       O  0.15882408  0.75008217  0.45799291    -0.72400
O1428       O  0.16377762  0.75002323  0.41403705    -0.72600
O1429       O  0.16018820  0.70619596  0.43593882    -0.72500
O1430       O  0.16234225  0.79344572  0.43609783    -0.72500
O1431       O  0.21233163  0.79237848  0.43669465    -0.72400
O1432       O  0.20998813  0.70507162  0.43816758    -0.72500
O1433       O  0.21357077  0.74719874  0.41550420    -0.72400
O1434       O  0.20871468  0.75008937  0.45929005    -0.72600
V1435       V  0.16224532  0.74986687  0.43602974     1.35200
V1436       V  0.21017798  0.74871084  0.43737669     1.35200
C1437       C  0.18300350  0.75025391  0.46615991     0.76800
C1438       C  0.18956194  0.74871267  0.40724879     0.76900
C1439       C  0.18473040  0.69074609  0.43709519     0.76800
C1440       C  0.18765063  0.80778590  0.43654372     0.76700
O1441       O  0.99402371  0.90989475  0.04173568    -0.72400
O1442       O  0.49259499  0.91610779  0.08574559    -0.72600
O1443       O  0.44958336  0.91159117  0.06346428    -0.72500
O1444       O  0.03686736  0.91476513  0.06389465    -0.72500
O1445       O  0.03657603  0.46813068  0.06288108    -0.72400
O1446       O  0.44919184  0.46607685  0.06181580    -0.72500
O1447       O  0.99138786  0.47137881  0.08399932    -0.72400
O1448       O  0.49412583  0.46308595  0.04076167    -0.72600
V1449       V  0.49322387  0.91419514  0.06374834     1.35200
V1450       V  0.49289349  0.46640172  0.06260717     1.35200
C1451       C  0.49466716  0.43687496  0.03446175     0.76800
C1452       C  0.49178214  0.44860378  0.09317711     0.76900
C1453       C  0.43375711  0.93588032  0.06282767     0.76800
C1454       C  0.05076225  0.94023864  0.06320172     0.76700
O1455       O  0.49874183  0.83464506  0.04194073    -0.72400
O1456       O  0.99544165  0.83109817  0.08547844    -0.72600
O1457       O  0.04051505  0.83269790  0.06424056    -0.72500
O1458       O  0.45292795  0.83224653  0.06250518    -0.72500
O1459       O  0.45290381  0.78240259  0.06156643    -0.72400
O1460       O  0.03985533  0.78292824  0.06324566    -0.72500
O1461       O  0.49447149  0.78037387  0.08449517    -0.72400
O1462       O  0.99817224  0.78534574  0.04048672    -0.72600
V1463       V  0.99677699  0.83213804  0.06348151     1.35200
V1464       V  0.99631368  0.78427826  0.06241073     1.35200
C1465       C  0.99893234  0.81091508  0.03352794     0.76800
C1466       C  0.99430493  0.80546415  0.09238463     0.76900
C1467       C  0.05514558  0.80758694  0.06385957     0.76800
C1468       C  0.43807314  0.80733812  0.06149902     0.76700
O1469       O  0.24229800  0.91633518  0.08551603    -0.72400
O1470       O  0.24217858  0.91210211  0.04142721    -0.72600
O1471       O  0.28551383  0.91348977  0.06339678    -0.72500
O1472       O  0.19831534  0.91475678  0.06334505    -0.72500
O1473       O  0.20009881  0.46798793  0.06172118    -0.72400
O1474       O  0.28753874  0.46733549  0.06037833    -0.72500
O1475       O  0.24253389  0.46459701  0.03929145    -0.72400
O1476       O  0.24509035  0.47100737  0.08297521    -0.72600
V1477       V  0.24200585  0.91512929  0.06343268     1.35200
V1478       V  0.24381983  0.46675356  0.06114817     1.35200
C1479       C  0.24491722  0.44739162  0.09149429     0.76800
C1480       C  0.24286968  0.43877573  0.03261326     0.76900
C1481       C  0.30073365  0.93812918  0.06232662     0.76800
C1482       C  0.18371325  0.93982243  0.06253597     0.76700
O1483       O  0.24667392  0.78209472  0.08319452    -0.72400
O1484       O  0.24631935  0.78784446  0.03945981    -0.72600
O1485       O  0.29012835  0.78446262  0.06131799    -0.72500
O1486       O  0.20303865  0.78552412  0.06162109    -0.72500
O1487       O  0.20348200  0.83506723  0.06433383    -0.72400
O1488       O  0.29084658  0.83437296  0.06168620    -0.72500
O1489       O  0.24448470  0.83754836  0.04095391    -0.72400
O1490       O  0.24974530  0.83172046  0.08492551    -0.72600
V1491       V  0.24656235  0.78598834  0.06138736     1.35200
V1492       V  0.24714658  0.83377537  0.06291956     1.35200
C1493       C  0.24820377  0.80579838  0.09157564     0.76800
C1494       C  0.24488634  0.81356228  0.03266239     0.76900
C1495       C  0.30534854  0.80919643  0.06154903     0.76800
C1496       C  0.18836639  0.81027303  0.06357221     0.76700
O1497       O  0.49281657  0.49373070  0.16617454    -0.72400
O1498       O  0.99455734  0.50328187  0.20951950    -0.72600
O1499       O  0.03705229  0.49822668  0.18726874    -0.72500
O1500       O  0.44970173  0.49870544  0.18810106    -0.72500
O1501       O  0.45144721  0.94176419  0.19047107    -0.72400
O1502       O  0.03860616  0.94507102  0.18959719    -0.72500
O1503       O  0.49630315  0.94964629  0.21169023    -0.72400
O1504       O  0.99483862  0.93778688  0.16811993    -0.72600
V1505       V  0.99345480  0.49749789  0.18777119     1.35200
V1506       V  0.99506259  0.94499791  0.18979549     1.35200
C1507       C  0.99558017  0.96035584  0.15891019     0.76800
C1508       C  0.99479735  0.97718985  0.21726621     0.76900
C1509       C  0.05173813  0.47319635  0.18745233     0.76800
C1510       C  0.43479163  0.47402025  0.18993919     0.76700
O1511       O  0.49574140  0.81620351  0.16922063    -0.72400
O1512       O  0.00256931  0.80404770  0.21193430    -0.72600
O1513       O  0.04222496  0.81000461  0.18870836    -0.72500
O1514       O  0.45510913  0.80986407  0.19255794    -0.72500
O1515       O  0.45411990  0.76072363  0.18857009    -0.72400
O1516       O  0.04077932  0.76066794  0.18522781    -0.72500
O1517       O  0.50075805  0.75339045  0.20881458    -0.72400
O1518       O  0.99470128  0.76814370  0.16494843    -0.72600
V1519       V  0.99880722  0.80983587  0.19021356     1.35200
V1520       V  0.99731162  0.76249482  0.18664516     1.35200
C1521       C  0.99500502  0.79497332  0.15930801     0.76800
C1522       C  0.00352773  0.77707376  0.21742371     0.76900
C1523       C  0.05638419  0.78496854  0.18677720     0.76800
C1524       C  0.43966659  0.78537614  0.19108200     0.76700
O1525       O  0.24105070  0.94863374  0.21218302    -0.72400
O1526       O  0.24646296  0.93416985  0.16872948    -0.72600
O1527       O  0.28764851  0.94092767  0.19181366    -0.72500
O1528       O  0.20056630  0.94166637  0.18921435    -0.72500
O1529       O  0.19936501  0.49630308  0.18600326    -0.72400
O1530       O  0.28675836  0.49671336  0.18621855    -0.72500
O1531       O  0.24305916  0.49057426  0.16428145    -0.72400
O1532       O  0.24265857  0.50255972  0.20782077    -0.72600
V1533       V  0.24406663  0.94224917  0.19041410     1.35200
V1534       V  0.24303665  0.49558271  0.18611376     1.35200
C1535       C  0.24065835  0.47996919  0.21695980     0.76800
C1536       C  0.24390460  0.46392520  0.15842635     0.76900
C1537       C  0.30303072  0.96491706  0.18896693     0.76800
C1538       C  0.18604664  0.96673901  0.18848203     0.76700
O1539       O  0.24491173  0.75672779  0.20786314    -0.72400
O1540       O  0.25041666  0.76758200  0.16447470    -0.72600
O1541       O  0.29173814  0.76294010  0.18758913    -0.72500
O1542       O  0.20439904  0.76197397  0.18480076    -0.72500
O1543       O  0.20392106  0.81139776  0.18790319    -0.72400
O1544       O  0.29072563  0.81232626  0.19063873    -0.72500
O1545       O  0.24995531  0.81709182  0.16740588    -0.72400
O1546       O  0.24452933  0.80618380  0.21106228    -0.72600
V1547       V  0.24798159  0.76326142  0.18624698     1.35200
V1548       V  0.24732584  0.81078378  0.18918884     1.35200
C1549       C  0.24328431  0.77947496  0.21687524     0.76800
C1550       C  0.25077660  0.79407809  0.15847333     0.76900
C1551       C  0.30621259  0.78795899  0.18947870     0.76800
C1552       C  0.18926674  0.78669555  0.18587056     0.76700
O1553       O  0.49749173  0.46053672  0.91650942    -0.72400
O1554       O  0.99219785  0.45716700  0.95982293    -0.72600
O1555       O  0.03851989  0.46002388  0.93941990    -0.72500
O1556       O  0.45147496  0.45775256  0.93704141    -0.72500
O1557       O  0.45340841  0.90983494  0.93645332    -0.72400
O1558       O  0.04084576  0.91054084  0.93684665    -0.72500
O1559       O  0.49698575  0.90844813  0.95852862    -0.72400
O1560       O  0.99771497  0.91259816  0.91434934    -0.72600
V1561       V  0.99497290  0.45746674  0.93797695     1.35200
V1562       V  0.99711713  0.91163260  0.93644221     1.35200
C1563       C  0.99782270  0.93825749  0.90739533     0.76800
C1564       C  0.99550148  0.93320572  0.96637203     0.76900
C1565       C  0.05438900  0.43568461  0.93919936     0.76800
C1566       C  0.43725632  0.43239293  0.93685003     0.76700
O1567       O  0.49684303  0.83339850  0.91451791    -0.72400
O1568       O  0.99652206  0.83707673  0.95830452    -0.72600
O1569       O  0.04031810  0.83431948  0.93636167    -0.72500
O1570       O  0.45330146  0.83587635  0.93636978    -0.72500
O1571       O  0.45287037  0.78619441  0.93836975    -0.72400
O1572       O  0.03991792  0.78449072  0.93705398    -0.72500
O1573       O  0.49790053  0.78789427  0.95967769    -0.72400
O1574       O  0.99472466  0.78227898  0.91591952    -0.72600
V1575       V  0.99674479  0.83368302  0.93630041     1.35200
V1576       V  0.99625308  0.78587331  0.93772774     1.35200
C1577       C  0.99537669  0.80610990  0.90756911     0.76800
C1578       C  0.99725831  0.81289639  0.96645944     0.76900
C1579       C  0.05504328  0.80931110  0.93669115     0.76800
C1580       C  0.43818351  0.81121742  0.93754487     0.76700
O1581       O  0.24772701  0.91141630  0.95831519    -0.72400
O1582       O  0.24673216  0.91431039  0.91421634    -0.72600
O1583       O  0.29065479  0.91255675  0.93602467    -0.72500
O1584       O  0.20326271  0.91327496  0.93669967    -0.72500
O1585       O  0.20331815  0.46259188  0.93708385    -0.72400
O1586       O  0.29046421  0.45964842  0.93545005    -0.72500
O1587       O  0.24554007  0.46164047  0.91445156    -0.72400
O1588       O  0.24819863  0.46045947  0.95820750    -0.72600
V1589       V  0.24705480  0.91382236  0.93631602     1.35200
V1590       V  0.24685825  0.46007668  0.93629701     1.35200
C1591       C  0.24799350  0.43539218  0.96560697     0.76800
C1592       C  0.24433478  0.43708483  0.90668480     0.76900
C1593       C  0.30568505  0.93741770  0.93641477     0.76800
C1594       C  0.18862470  0.93840066  0.93689007     0.76700
O1595       O  0.24612805  0.79035173  0.95811855    -0.72400
O1596       O  0.24826235  0.78749400  0.91442980    -0.72600
O1597       O  0.29051418  0.78936891  0.93676157    -0.72500
O1598       O  0.20329489  0.78871598  0.93574788    -0.72500
O1599       O  0.20287798  0.83855026  0.93517624    -0.72400
O1600       O  0.29031153  0.83920013  0.93554909    -0.72500
O1601       O  0.24705977  0.83729524  0.91335583    -0.72400
O1602       O  0.24630104  0.84016159  0.95749022    -0.72600
V1603       V  0.24694659  0.79000772  0.93624893     1.35200
V1604       V  0.24659742  0.83788816  0.93542479     1.35200
C1605       C  0.24662142  0.81556128  0.96534291     0.76800
C1606       C  0.24837374  0.81172217  0.90638680     0.76900
C1607       C  0.30529959  0.81434019  0.93607115     0.76800
C1608       C  0.18814481  0.81349695  0.93526237     0.76700
O1609       O  0.54222119  0.49634375  0.58459191    -0.72400
O1610       O  0.54195053  0.99258928  0.54002683    -0.72600
O1611       O  0.54219794  0.95015977  0.56281186    -0.72500
O1612       O  0.54535889  0.53818017  0.56182182    -0.72500
O1613       O  0.09490598  0.53793632  0.56382160    -0.72400
O1614       O  0.09111846  0.95165479  0.56231459    -0.72500
O1615       O  0.09640910  0.49370560  0.54205472    -0.72400
O1616       O  0.08886283  0.99480992  0.58459198    -0.72600
V1617       V  0.54206086  0.99389921  0.56195682     1.35200
V1618       V  0.08900013  0.99524583  0.56256654     1.35200
C1619       C  0.06341559  0.99601312  0.59169740     0.76800
C1620       C  0.06635632  0.99468332  0.53270973     0.76900
C1621       C  0.56759099  0.93591438  0.56262974     0.76800
C1622       C  0.57043015  0.55290338  0.56262006     0.76700
O1623       O  0.54256436  0.74146508  0.58510057    -0.72400
O1624       O  0.54583627  0.74712044  0.54138194    -0.72600
O1625       O  0.54480644  0.70058918  0.56199511    -0.72500
O1626       O  0.54402604  0.78789710  0.56471513    -0.72500
O1627       O  0.09396152  0.78832250  0.56340625    -0.72400
O1628       O  0.09455698  0.70117834  0.56474333    -0.72500
O1629       O  0.09520285  0.74335460  0.54187517    -0.72400
O1630       O  0.09304792  0.74591651  0.58600892    -0.72600
V1631       V  0.54524879  0.74427259  0.56329187     1.35200
V1632       V  0.09329563  0.74470124  0.56395722     1.35200
C1633       C  0.06771182  0.74314688  0.59312866     0.76800
C1634       C  0.07061354  0.74589077  0.53407875     0.76900
C1635       C  0.56976311  0.68592812  0.56365488     0.76800
C1636       C  0.56898442  0.80293386  0.56459889     0.76700
O1637       O  0.21386616  0.50796124  0.54107971    -0.72400
O1638       O  0.21826272  0.00656199  0.58442044    -0.72600
O1639       O  0.21250398  0.96290056  0.56289534    -0.72500
O1640       O  0.21638076  0.55111208  0.56335303    -0.72500
O1641       O  0.16644566  0.55150879  0.56441956    -0.72400
O1642       O  0.16267176  0.96533720  0.56457729    -0.72500
O1643       O  0.16810185  0.50715708  0.58617464    -0.72400
O1644       O  0.16188994  0.00950993  0.54264728    -0.72600
V1645       V  0.21386534  0.00649158  0.56273099     1.35200
V1646       V  0.16604692  0.00892143  0.56457932     1.35200
C1647       C  0.18571341  0.00744786  0.53428617     0.76800
C1648       C  0.19473318  0.00675936  0.59295361     0.76900
C1649       C  0.18685585  0.94925304  0.56390444     0.76800
C1650       C  0.19157420  0.56621558  0.56404256     0.76700
O1651       O  0.20947700  0.75760762  0.53977734    -0.72400
O1652       O  0.21606598  0.75896193  0.58337850    -0.72600
O1653       O  0.21412736  0.71482862  0.56190572    -0.72500
O1654       O  0.21116540  0.80208180  0.56121020    -0.72500
O1655       O  0.16165572  0.80063672  0.56450275    -0.72400
O1656       O  0.16417267  0.71337235  0.56230953    -0.72500
O1657       O  0.16648262  0.75452599  0.58536344    -0.72400
O1658       O  0.15966379  0.75910605  0.54145514    -0.72600
V1659       V  0.21172026  0.75843346  0.56161665     1.35200
V1660       V  0.16389630  0.75698579  0.56338908     1.35200
C1661       C  0.18357267  0.75833140  0.53311121     0.76800
C1662       C  0.19263087  0.75574054  0.59186239     0.76900
C1663       C  0.18957079  0.69919035  0.56188938     0.76800
C1664       C  0.18593585  0.81627905  0.56268899     0.76700
C1665       C  0.18553543  0.91529825  0.56386216    -0.06700
C1666       C  0.20513618  0.89961928  0.55377495    -0.17900
C1667       C  0.20474745  0.86759159  0.55270999     0.10500
C1668       C  0.18498811  0.85031775  0.56232029    -0.06700
C1669       C  0.16486535  0.86598865  0.57223657    -0.17900
C1670       C  0.16517482  0.89818598  0.57325051     0.10500
S1671       S  0.22901911  0.85041692  0.53828221    -0.32900
S1672       S  0.14021902  0.91581684  0.58724997    -0.32900
H1673       H  0.16125985  0.93885109  0.59157943     0.28500
H1674       H  0.20782689  0.82741940  0.53413358     0.28500
H1675       H  0.22035724  0.91252095  0.54630044     0.19100
H1676       H  0.14957733  0.85304333  0.57965269     0.19100
C1677       C  0.19165625  0.60023544  0.56389959    -0.06700
C1678       C  0.16815940  0.61529630  0.55580414    -0.17900
C1679       C  0.16788588  0.64726556  0.55430552     0.10500
C1680       C  0.19062299  0.66516086  0.56171772    -0.06700
C1681       C  0.21435265  0.65013314  0.56969838    -0.17900
C1682       C  0.21507857  0.61802608  0.57092352     0.10500
S1683       S  0.13922179  0.66351488  0.54184932    -0.32900
S1684       S  0.24562849  0.60142221  0.58223041    -0.32900
H1685       H  0.22687486  0.57898774  0.58917052     0.28500
H1686       H  0.15855769  0.68637471  0.53569764     0.28500
H1687       H  0.15046858  0.60195956  0.55003604     0.19100
H1688       H  0.23199306  0.66354213  0.57545370     0.19100
C1689       C  0.56847735  0.90185345  0.56308677    -0.06700
C1690       C  0.54735334  0.88624209  0.57247779    -0.17900
C1691       C  0.54774035  0.85413167  0.57373021     0.10500
C1692       C  0.56915727  0.83691243  0.56504861    -0.06700
C1693       C  0.09035678  0.85279138  0.55600656    -0.17900
C1694       C  0.08966132  0.88479907  0.55475040     0.10500
S1695       S  0.52138775  0.83677412  0.58718250    -0.32900
S1696       S  0.11579194  0.90209170  0.54132152    -0.32900
H1697       H  0.09307130  0.92209907  0.53568529     0.28500
H1698       H  0.54154284  0.81327711  0.59184442     0.28500
H1699       H  0.53091799  0.89921030  0.57922040     0.19100
H1700       H  0.10696259  0.84001637  0.54924982     0.19100
C1701       C  0.57081653  0.58691423  0.56219944    -0.06700
C1702       C  0.09134749  0.60275339  0.57175307    -0.17900
C1703       C  0.09103693  0.63485012  0.57277344     0.10500
C1704       C  0.57014180  0.65188969  0.56377269    -0.06700
C1705       C  0.54973449  0.63613299  0.55405706    -0.17900
C1706       C  0.55022672  0.60405774  0.55297453     0.10500
S1707       S  0.11666891  0.65221520  0.58654824    -0.32900
S1708       S  0.52565206  0.58653223  0.53878765    -0.32900
H1709       H  0.54799512  0.56503032  0.53425937     0.28500
H1710       H  0.09540048  0.67450526  0.59145814     0.28500
H1711       H  0.10720940  0.58987100  0.57891326     0.19100
H1712       H  0.53400033  0.64895185  0.54681521     0.19100
C1713       C  0.40418833  0.81196806  0.93764068    -0.06700
C1714       C  0.38920557  0.83453336  0.92882357    -0.17900
C1715       C  0.35708542  0.83561369  0.92781854     0.10500
C1716       C  0.33926651  0.81409225  0.93612833    -0.06700
C1717       C  0.35424838  0.79157937  0.94493711    -0.17900
C1718       C  0.38632788  0.79055615  0.94597726     0.10500
S1719       S  0.34053586  0.86359893  0.91493879    -0.32900
S1720       S  0.40280754  0.76244175  0.95878466    -0.32900
H1721       H  0.42539121  0.78240336  0.96472495     0.28500
H1722       H  0.31760384  0.84382351  0.90919027     0.28500
H1723       H  0.40265315  0.85093668  0.92227048     0.19100
H1724       H  0.34082569  0.77509160  0.95143999     0.19100
C1725       C  0.08908910  0.80951750  0.93636312    -0.06700
C1726       C  0.10386846  0.83387427  0.92877185    -0.17900
C1727       C  0.13602832  0.83577981  0.92805175     0.10500
C1728       C  0.15404640  0.81282089  0.93521353    -0.06700
C1729       C  0.13924208  0.78832880  0.94270656    -0.17900
C1730       C  0.10705369  0.78642752  0.94342688     0.10500
S1731       S  0.15331977  0.86662416  0.91715689    -0.32900
S1732       S  0.08956960  0.75542284  0.95418461    -0.32900
H1733       H  0.11670872  0.73875842  0.95706513     0.28500
H1734       H  0.12612011  0.88298788  0.91398599     0.28500
H1735       H  0.09005903  0.85131151  0.92318661     0.19100
H1736       H  0.15303371  0.77095499  0.94834605     0.19100
C1737       C  0.33949165  0.93704127  0.93611225    -0.06700
C1738       C  0.35465570  0.91597283  0.94557763    -0.17900
C1739       C  0.38669347  0.91495764  0.94623516     0.10500
C1740       C  0.40320491  0.43169290  0.93602350    -0.06700
C1741       C  0.38819536  0.45321493  0.92660628    -0.17900
C1742       C  0.35603773  0.45392782  0.92547532     0.10500
S1743       S  0.40308309  0.89073844  0.96067769    -0.32900
S1744       S  0.33920951  0.48131647  0.91238328    -0.32900
H1745       H  0.31499160  0.46199029  0.90765577     0.28500
H1746       H  0.42078325  0.87395364  0.95028974     0.28500
H1747       H  0.34141249  0.90059985  0.95281742     0.19100
H1748       H  0.40160650  0.46943423  0.91993833     0.19100
C1749       C  0.15455214  0.93871997  0.93752071    -0.06700
C1750       C  0.13939582  0.91538803  0.94576067    -0.17900
C1751       C  0.10719416  0.91417150  0.94653118     0.10500
C1752       C  0.08833823  0.43714011  0.94009851    -0.06700
C1753       C  0.10337877  0.46170607  0.93287139    -0.17900
C1754       C  0.13549720  0.46343424  0.93239402     0.10500
S1755       S  0.09021349  0.88536644  0.95878724    -0.32900
S1756       S  0.15191263  0.49633894  0.92294575    -0.32900
H1757       H  0.16594038  0.50717179  0.93649020     0.28500
H1758       H  0.06615942  0.90425649  0.96400719     0.28500
H1759       H  0.15275172  0.89826231  0.95188306     0.19100
H1760       H  0.08998851  0.47958128  0.92734004     0.19100
C1761       C  0.40551532  0.78589544  0.19173578    -0.06700
C1762       C  0.39032898  0.81360670  0.18842909    -0.17900
C1763       C  0.35810652  0.81534647  0.18780524     0.10500
C1764       C  0.34037087  0.78846605  0.19043170    -0.06700
C1765       C  0.35558936  0.76098654  0.19414925    -0.17900
C1766       C  0.38777674  0.75942497  0.19504070     0.10500
S1767       S  0.34064847  0.85183448  0.18288892    -0.32900
S1768       S  0.40546572  0.72373817  0.20104165    -0.32900
H1769       H  0.37819162  0.70705246  0.20358721     0.28500
H1770       H  0.36733549  0.87002006  0.18417273     0.28500
H1771       H  0.40383056  0.83386999  0.18588696     0.19100
H1772       H  0.34212156  0.74063357  0.19653478     0.19100
C1773       C  0.09033749  0.78452223  0.18638688    -0.06700
C1774       C  0.10569725  0.81135399  0.18176692    -0.17900
C1775       C  0.13786814  0.81279592  0.18125120     0.10500
C1776       C  0.15526003  0.78649741  0.18529680    -0.06700
C1777       C  0.13984071  0.75951392  0.18967641    -0.17900
C1778       C  0.10777555  0.75843693  0.19061628     0.10500
S1779       S  0.15589648  0.84805085  0.17481952    -0.32900
S1780       S  0.09093207  0.72387354  0.19837149    -0.32900
H1781       H  0.07075601  0.73958260  0.20828129     0.28500
H1782       H  0.12916516  0.86627019  0.17439132     0.28500
H1783       H  0.09236121  0.83125362  0.17840652     0.19100
H1784       H  0.15290595  0.73944465  0.19310342     0.19100
C1785       C  0.33703668  0.96445581  0.18892171    -0.06700
C1786       C  0.35167543  0.49298449  0.18000790    -0.17900
C1787       C  0.38385817  0.49328945  0.17954201     0.10500
C1788       C  0.40076876  0.47369177  0.18939787    -0.06700
C1789       C  0.38660244  0.94621691  0.19820859    -0.17900
C1790       C  0.35445196  0.94623763  0.19922157     0.10500
S1791       S  0.40176651  0.51764700  0.16534876    -0.32900
S1792       S  0.33735157  0.92392565  0.21445475    -0.32900
H1793       H  0.31480854  0.94588892  0.21814307     0.28500
H1794       H  0.42406071  0.49585984  0.16102620     0.28500
H1795       H  0.33901094  0.50791575  0.17229296     0.19100
H1796       H  0.39978947  0.93273448  0.20637779     0.19100
C1797       C  0.08564907  0.47264602  0.18663698    -0.06700
C1798       C  0.10225023  0.94553422  0.19512564    -0.17900
C1799       C  0.13428190  0.94403487  0.19579126     0.10500
C1800       C  0.15205458  0.96751494  0.18888513    -0.06700
C1801       C  0.13502471  0.49492324  0.17972055    -0.17900
C1802       C  0.10289382  0.49565257  0.17904019     0.10500
S1803       S  0.15062496  0.91224254  0.20628950    -0.32900
S1804       S  0.08555154  0.52556825  0.16760369    -0.32900
H1805       H  0.06310227  0.50626211  0.16102206     0.28500
H1806       H  0.17241442  0.93044365  0.21403480     0.28500
H1807       H  0.08902571  0.92732177  0.20048846     0.19100
H1808       H  0.14798487  0.51260096  0.17376570     0.19100
C1809       C  0.24750840  0.81588604  0.98255719    -0.06700
C1810       C  0.23088717  0.83832065  0.99066775    -0.17900
C1811       C  0.22884848  0.83775433  0.00683375     0.10500
C1812       C  0.24472796  0.81502205  0.01541570    -0.06700
C1813       C  0.26151573  0.79279295  0.00725983    -0.17900
C1814       C  0.26333208  0.79312181  0.99114248     0.10500
S1815       S  0.20328948  0.86490866  0.01562262    -0.32900
S1816       S  0.28759916  0.76458914  0.98232006    -0.32900
H1817       H  0.29988480  0.78488971  0.97133468     0.28500
H1818       H  0.19200782  0.84406179  0.02662158     0.28500
H1819       H  0.21825278  0.85567176  0.98434179     0.19100
H1820       H  0.27406918  0.77530220  0.01352717     0.19100
C1821       C  0.24827439  0.80304135  0.10872132    -0.06700
C1822       C  0.26717895  0.82252385  0.11751712    -0.17900
C1823       C  0.26895571  0.81991955  0.13362833     0.10500
C1824       C  0.25101144  0.79760482  0.14138326    -0.06700
C1825       C  0.23203251  0.77819521  0.13259067    -0.17900
C1826       C  0.23019407  0.78080890  0.11647793     0.10500
S1827       S  0.29580876  0.84452045  0.14353884    -0.32900
S1828       S  0.20329615  0.75678783  0.10608143    -0.32900
H1829       H  0.18992060  0.74245471  0.11893949     0.28500
H1830       H  0.30499721  0.82217562  0.15429488     0.28500
H1831       H  0.28158413  0.83925837  0.11170659     0.19100
H1832       H  0.21798866  0.76125720  0.13846868     0.19100
C1833       C  0.24286186  0.43692244  0.01545562    -0.06700
C1834       C  0.26244979  0.91527547  0.00852736    -0.17900
C1835       C  0.26493813  0.91517033  0.99236835     0.10500
C1836       C  0.24755508  0.43549195  0.98276413    -0.06700
C1837       C  0.22873248  0.45707149  0.99019787    -0.17900
C1838       C  0.22588000  0.45775484  0.00625569     0.10500
S1839       S  0.29354643  0.89040443  0.98395117    -0.32900
S1840       S  0.19895724  0.48492210  0.01421564    -0.32900
H1841       H  0.18826254  0.46511583  0.02583702     0.28500
H1842       H  0.30209809  0.91128803  0.97238578     0.28500
H1843       H  0.27719798  0.90028808  0.01520849     0.19100
H1844       H  0.21531691  0.47306721  0.98338794     0.19100
C1845       C  0.24321394  0.45939507  0.14129870    -0.06700
C1846       C  0.26357517  0.93130398  0.13507394    -0.17900
C1847       C  0.26446290  0.92810871  0.11892390     0.10500
C1848       C  0.24518837  0.45072643  0.10866656    -0.06700
C1849       C  0.22960769  0.47580536  0.11522187    -0.17900
C1850       C  0.22800765  0.48006738  0.13121924     0.10500
S1851       S  0.29473634  0.90488820  0.11087072    -0.32900
S1852       S  0.20457976  0.51144316  0.13796488    -0.32900
H1853       H  0.19104252  0.49451577  0.14998228     0.28500
H1854       H  0.29960519  0.92351162  0.09788921     0.28500
H1855       H  0.28043252  0.91923109  0.14201925     0.19100
H1856       H  0.21765419  0.49187837  0.10779609     0.19100
C1857       C  0.40415778  0.80724475  0.06065326    -0.06700
C1858       C  0.38796480  0.78687488  0.07016151    -0.17900
C1859       C  0.35583568  0.78756204  0.07094768     0.10500
C1860       C  0.33926233  0.80859927  0.06172621    -0.06700
C1861       C  0.35542081  0.82880586  0.05209909    -0.17900
C1862       C  0.38758504  0.82795297  0.05124344     0.10500
S1863       S  0.33751730  0.76234452  0.08462916    -0.32900
S1864       S  0.40605826  0.85287019  0.03749191    -0.32900
H1865       H  0.42947745  0.83188703  0.03376585     0.28500
H1866       H  0.31519303  0.78382535  0.08925889     0.28500
H1867       H  0.40050846  0.77107439  0.07750592     0.19100
H1868       H  0.34284250  0.84472115  0.04482785     0.19100
C1869       C  0.08926851  0.80723380  0.06418233    -0.06700
C1870       C  0.10477919  0.83163740  0.07142825    -0.17900
C1871       C  0.13696983  0.83243542  0.07226501     0.10500
C1872       C  0.15435503  0.80969825  0.06458794    -0.06700
C1873       C  0.13887144  0.78516105  0.05754575    -0.17900
C1874       C  0.10673113  0.78315036  0.05759301     0.10500
S1875       S  0.15414325  0.86182329  0.08411265    -0.32900
S1876       S  0.08896190  0.74974567  0.04896007    -0.32900
H1877       H  0.11608945  0.73389307  0.04513373     0.28500
H1878       H  0.17683350  0.84239891  0.09036638     0.28500
H1879       H  0.09173410  0.84961130  0.07701989     0.19100
H1880       H  0.15208880  0.76745397  0.05188603     0.19100
C1881       C  0.99794035  0.81384847  0.98363209    -0.06700
C1882       C  0.01609758  0.79218564  0.99143539    -0.17900
C1883       C  0.01766978  0.79147308  0.00753673     0.10500
C1884       C  0.00022275  0.81241807  0.01639295    -0.06700
C1885       C  0.48292531  0.83418195  0.00899640    -0.17900
C1886       C  0.48104588  0.83493603  0.99287300     0.10500
S1887       S  0.04390333  0.76452429  0.01606403    -0.32900
S1888       S  0.45416821  0.86137142  0.98462506    -0.32900
H1889       H  0.44353222  0.84061834  0.97341661     0.28500
H1890       H  0.05442124  0.78570932  0.02709437     0.28500
H1891       H  0.02977948  0.77594496  0.98490319     0.19100
H1892       H  0.46917290  0.85018276  0.01562207     0.19100
C1893       C  0.99419812  0.79940743  0.14226147    -0.06700
C1894       C  0.48050074  0.77487451  0.13377387    -0.17900
C1895       C  0.47896799  0.77683545  0.11768837     0.10500
C1896       C  0.99299360  0.80366426  0.10953871    -0.06700
C1897       C  0.01037924  0.82444797  0.11839804    -0.17900
C1898       C  0.01107971  0.82271887  0.13460888     0.10500
S1899       S  0.45886659  0.74636180  0.10787523    -0.32900
S1900       S  0.03511769  0.84916629  0.14524772    -0.32900
H1901       H  0.04654965  0.86555039  0.13253164     0.28500
H1902       H  0.44346475  0.76618755  0.09766547     0.28500
H1903       H  0.47061468  0.75490222  0.13936016     0.19100
H1904       H  0.02393088  0.84176358  0.11254519     0.19100
C1905       C  0.39965743  0.93499199  0.06246158    -0.09900
C1906       C  0.38586263  0.46022545  0.05246297    -0.17900
C1907       C  0.35372448  0.46076788  0.05134075     0.10500
C1908       C  0.33462604  0.93722439  0.06169074    -0.06700
C1909       C  0.34986934  0.91453520  0.07020034    -0.17900
C1910       C  0.38195313  0.91307045  0.07064501     0.10500
S1911       S  0.33684936  0.48533635  0.03692453    -0.32900
S1912       S  0.39832142  0.88413190  0.08286684    -0.32900
H1913       H  0.41478045  0.87079739  0.07086863     0.28500
H1914       H  0.31314093  0.46474441  0.03293772     0.28500
H1915       H  0.39927030  0.47522168  0.04508967     0.19100
H1916       H  0.33665829  0.89806058  0.07682902     0.19100
C1917       C  0.08471789  0.94110472  0.06322744    -0.06700
C1918       C  0.10033642  0.91681955  0.05610521    -0.17900
C1919       C  0.13236315  0.91656369  0.05507337     0.10500
C1920       C  0.14969853  0.94032374  0.06200124    -0.06700
C1921       C  0.13568261  0.46743703  0.06974112    -0.17900
C1922       C  0.10352557  0.46787776  0.07091604     0.10500
S1923       S  0.14933052  0.88643751  0.04379172    -0.32900
S1924       S  0.08643937  0.49856751  0.08187410    -0.32900
H1925       H  0.06395197  0.47992283  0.08886501     0.28500
H1926       H  0.17165219  0.90569264  0.03714871     0.28500
H1927       H  0.08742442  0.89830442  0.05078759     0.19100
H1928       H  0.14887285  0.48567309  0.07509610     0.19100
C1929       C  0.99376786  0.93223572  0.98350248    -0.06700
C1930       C  0.01237248  0.41251258  0.99259682    -0.17900
C1931       C  0.01377242  0.41344746  0.00877652     0.10500
C1932       C  0.49441503  0.43420174  0.01734109    -0.06700
C1933       C  0.47586674  0.95323862  0.00793450    -0.17900
C1934       C  0.47516421  0.95285548  0.99180546     0.10500
S1935       S  0.04210554  0.38962296  0.01811866    -0.32900
S1936       S  0.44809849  0.97812027  0.98245988    -0.32900
H1937       H  0.43961340  0.95686263  0.97103077     0.28500
H1938       H  0.04969532  0.41118885  0.02954001     0.28500
H1939       H  0.02773065  0.39727667  0.98645357     0.19100
H1940       H  0.46095274  0.96906797  0.01399745     0.19100
C1941       C  0.99641545  0.95547902  0.14186209    -0.06700
C1942       C  0.48227390  0.92784841  0.13572678    -0.17900
C1943       C  0.48040968  0.92326756  0.11976179     0.10500
C1944       C  0.49062123  0.45275310  0.11032798    -0.06700
C1945       C  0.99645669  0.48199012  0.11609486    -0.17900
C1946       C  0.99581432  0.48785370  0.13197938     0.10500
S1947       S  0.45897524  0.89046458  0.11321666    -0.32900
S1948       S  0.00261773  0.52696621  0.13780053    -0.32900
H1949       H  0.97386292  0.52946084  0.14515104     0.28500
H1950       H  0.44343540  0.90770192  0.10201764     0.28500
H1951       H  0.47156295  0.91122666  0.14330695     0.19100
H1952       H  0.00138138  0.50091492  0.10837771     0.19100
C1953       C  0.18153605  0.75076107  0.48333253    -0.06700
C1954       C  0.16029467  0.77003492  0.49084780    -0.17900
C1955       C  0.16068807  0.77372082  0.50696195     0.10500
C1956       C  0.18192718  0.75678917  0.51598499    -0.06700
C1957       C  0.20251164  0.73702443  0.50845471    -0.17900
C1958       C  0.20233832  0.73359527  0.49244199     0.10500
S1959       S  0.13524540  0.80207204  0.51510173    -0.32900
S1960       S  0.22814886  0.70551151  0.48440642    -0.32900
H1961       H  0.20702231  0.69536069  0.47325418     0.28500
H1962       H  0.15508721  0.81121593  0.52702197     0.28500
H1963       H  0.14411676  0.78335643  0.48409333     0.19100
H1964       H  0.21855047  0.72343111  0.51517552     0.19100
C1965       C  0.18900674  0.90672307  0.43644310    -0.06700
C1966       C  0.16745755  0.89078721  0.44542429    -0.17900
C1967       C  0.16708706  0.85868702  0.44595455     0.10500
C1968       C  0.18826894  0.84173688  0.43702047    -0.06700
C1969       C  0.20993802  0.85760827  0.42805823    -0.17900
C1970       C  0.21025014  0.88980723  0.42750542     0.10500
S1971       S  0.14028101  0.84082262  0.45900344    -0.32900
S1972       S  0.23691134  0.90779463  0.41444933    -0.32900
H1973       H  0.21623246  0.93080113  0.40970475     0.28500
H1974       H  0.16112831  0.81814102  0.46389819     0.28500
H1975       H  0.15127729  0.90348179  0.45244783     0.19100
H1976       H  0.22602518  0.84483713  0.42102067     0.19100
C1977       C  0.18456332  0.59190833  0.43899400    -0.06700
C1978       C  0.16514227  0.60716355  0.42859677    -0.17900
C1979       C  0.16485305  0.63927399  0.42762442     0.10500
C1980       C  0.18411743  0.65676940  0.43739601    -0.06700
C1981       C  0.20313561  0.64144096  0.44796518    -0.17900
C1982       C  0.20299458  0.60938170  0.44912657     0.10500
S1983       S  0.14087341  0.65627423  0.41302096    -0.32900
S1984       S  0.22541872  0.59226103  0.46434178    -0.32900
H1985       H  0.20401891  0.56882503  0.46758127     0.28500
H1986       H  0.16211789  0.67929044  0.40893096     0.28500
H1987       H  0.15083397  0.59394783  0.42081050     0.19100
H1988       H  0.21766390  0.65454143  0.45566751     0.19100
C1989       C  0.18381634  0.00530481  0.51719796    -0.06700
C1990       C  0.20185720  0.98294067  0.50983501    -0.17900
C1991       C  0.20068330  0.97864582  0.49386532     0.10500
C1992       C  0.18184446  0.99779088  0.48468964    -0.06700
C1993       C  0.16389236  0.51852335  0.49193731    -0.17900
C1994       C  0.16477623  0.52264503  0.50800910     0.10500
S1995       S  0.22274721  0.94733902  0.48596526    -0.32900
S1996       S  0.13802587  0.54964983  0.51624469    -0.32900
H1997       H  0.15849305  0.56074502  0.52749299     0.28500
H1998       H  0.20173468  0.94043367  0.47412827     0.28500
H1999       H  0.21642638  0.96800371  0.51665625     0.19100
H2000       H  0.14733904  0.53144720  0.48521921     0.19100
C2001       C  0.07160134  0.75379754  0.48417021    -0.06700
C2002       C  0.57636258  0.72356328  0.49171838    -0.17900
C2003       C  0.57621489  0.72066816  0.50784078     0.10500
C2004       C  0.07109646  0.74763721  0.51688919    -0.06700
C2005       C  0.06258873  0.77533542  0.50976195    -0.17900
C2006       C  0.06327523  0.77882441  0.49366784     0.10500
S2007       S  0.57999411  0.68249991  0.51562252    -0.32900
S2008       S  0.05438156  0.81622366  0.48606713    -0.32900
H2009       H  0.07242049  0.81353647  0.47273188     0.28500
H2010       H  0.56369217  0.68783172  0.52927231     0.28500
H2011       H  0.57902178  0.70317067  0.48471453     0.19100
H2012       H  0.05610767  0.79475769  0.51683582     0.19100
C2013       C  0.56022992  0.91058493  0.43577058    -0.06700
C2014       C  0.53636187  0.89475971  0.44322094    -0.17900
C2015       C  0.53628752  0.86268718  0.44438557     0.10500
C2016       C  0.56080937  0.84550359  0.43791614    -0.06700
C2017       C  0.08328256  0.86259949  0.42961498    -0.17900
C2018       C  0.08309845  0.89467067  0.42825304     0.10500
S2019       S  0.50422380  0.84578293  0.45450999    -0.32900
S2020       S  0.11286821  0.91182813  0.41663236    -0.32900
H2021       H  0.09315470  0.93320811  0.40951695     0.28500
H2022       H  0.52151053  0.82318240  0.46206815     0.28500
H2023       H  0.51778843  0.90753897  0.44850166     0.19100
H2024       H  0.10194976  0.84989087  0.42437155     0.19100
C2025       C  0.56599891  0.59568151  0.43903208    -0.06700
C2026       C  0.54374608  0.61126001  0.43031250    -0.17900
C2027       C  0.54358341  0.64329433  0.42934644     0.10500
C2028       C  0.56563157  0.66049175  0.43764532    -0.06700
C2029       C  0.08889196  0.64625473  0.44610757    -0.17900
C2030       C  0.08917899  0.61409510  0.44708371     0.10500
S2031       S  0.51569824  0.66069441  0.41666964    -0.32900
S2032       S  0.11623503  0.59675905  0.46022282    -0.32900
H2033       H  0.09668692  0.57274570  0.46489587     0.28500
H2034       H  0.53563441  0.68382874  0.41131215     0.28500
H2035       H  0.52685501  0.59834026  0.42379670     0.19100
H2036       H  0.10541282  0.65941005  0.45277722     0.19100
C2037       C  0.06318451  0.00331354  0.48283526    -0.06700
C2038       C  0.09302163  0.48359970  0.49095584    -0.17900
C2039       C  0.09465687  0.48029127  0.50702114     0.10500
C2040       C  0.06647227  0.99701838  0.51549981    -0.06700
C2041       C  0.54278389  0.01273613  0.50846156    -0.17900
C2042       C  0.54092786  0.01621944  0.49243512     0.10500
S2043       S  0.12284210  0.45334845  0.51385009    -0.32900
S2044       S  0.51006898  0.03964132  0.48502619    -0.32900
H2045       H  0.54199651  0.55601215  0.47431340     0.28500
H2046       H  0.13373523  0.47137118  0.52590286     0.28500
H2047       H  0.10894357  0.47078456  0.48382952     0.19100
H2048       H  0.52529048  0.02342282  0.51553277     0.19100
C2049       C  0.23893750  0.77456198  0.23371570    -0.06700
C2050       C  0.21668142  0.75317439  0.23857609    -0.17900
C2051       C  0.21093188  0.74770529  0.25424065     0.10500
C2052       C  0.22769696  0.76397542  0.26559287    -0.06700
C2053       C  0.25020694  0.78515774  0.26072416    -0.17900
C2054       C  0.25599843  0.79057181  0.24503301     0.10500
S2055       S  0.18259804  0.71890834  0.25894056    -0.32900
S2056       S  0.28607371  0.81748733  0.24022343    -0.32900
H2057       H  0.29651392  0.80144598  0.22720522     0.28500
H2058       H  0.19910214  0.70672150  0.27146294     0.28500
H2059       H  0.20348999  0.74060440  0.23005262     0.19100
H2060       H  0.26335996  0.79778067  0.26923935     0.19100
C2061       C  0.19192086  0.74872763  0.39008665    -0.06700
C2062       C  0.21484678  0.73072989  0.38310268    -0.17900
C2063       C  0.21825137  0.72955470  0.36705009     0.10500
C2064       C  0.19883185  0.74734353  0.35745497    -0.06700
C2065       C  0.17542814  0.76482664  0.36438959    -0.17900
C2066       C  0.17211416  0.76612985  0.38047970     0.10500
S2067       S  0.24703114  0.70381410  0.35951863    -0.32900
S2068       S  0.14363948  0.79220190  0.38800833    -0.32900
H2069       H  0.16220510  0.80289209  0.40015294     0.28500
H2070       H  0.22957290  0.69473396  0.34665432     0.28500
H2071       H  0.22994014  0.71690774  0.39021328     0.19100
H2072       H  0.16051537  0.77880335  0.35726018     0.19100
C2073       C  0.21091834  0.84668670  0.31373214    -0.06700
C2074       C  0.22997725  0.86220199  0.32423456    -0.17900
C2075       C  0.23016021  0.89441938  0.32505579     0.10500
C2076       C  0.21081597  0.91139286  0.31515081    -0.06700
C2077       C  0.19092685  0.89576954  0.30513894    -0.17900
C2078       C  0.19146407  0.86386576  0.30394433     0.10500
S2079       S  0.25353251  0.91344978  0.33938723    -0.32900
S2080       S  0.16852992  0.84684112  0.28888521    -0.32900
H2081       H  0.19148723  0.82599356  0.28427431     0.28500
H2082       H  0.26726044  0.88684169  0.34549378     0.28500
H2083       H  0.24447113  0.84896700  0.33192993     0.19100
H2084       H  0.17562021  0.90858083  0.29765720     0.19100
C2085       C  0.21166736  0.59673854  0.30895794    -0.06700
C2086       C  0.23964686  0.61225324  0.30643474    -0.17900
C2087       C  0.24112904  0.64439182  0.30570102     0.10500
C2088       C  0.21422312  0.66202902  0.30825518    -0.06700
C2089       C  0.18621709  0.64650672  0.31058564    -0.17900
C2090       C  0.18450751  0.61442607  0.31074912     0.10500
S2091       S  0.27783260  0.66109729  0.30084114    -0.32900
S2092       S  0.14701019  0.59790601  0.31397281    -0.32900
H2093       H  0.14609852  0.58409363  0.29935338     0.28500
H2094       H  0.26531828  0.68182375  0.29009147     0.28500
H2095       H  0.26060073  0.59921949  0.30467755     0.19100
H2096       H  0.16526154  0.65946199  0.31248010     0.19100
C2097       C  0.22616109  0.49357396  0.26602421    -0.06700
C2098       C  0.24663845  0.51271582  0.25793626    -0.17900
C2099       C  0.25236904  0.50851168  0.24212336     0.10500
C2100       C  0.23729730  0.48464041  0.23395180    -0.06700
C2101       C  0.21434854  0.96575338  0.24214851    -0.17900
C2102       C  0.20766391  0.97104041  0.25773888     0.10500
S2103       S  0.28009254  0.53369454  0.23322934    -0.32900
S2104       S  0.17761439  0.94815963  0.26620000    -0.32900
H2105       H  0.19492951  0.94189500  0.27946351     0.28500
H2106       H  0.29302609  0.51089135  0.22377506     0.28500
H2107       H  0.25828728  0.53105698  0.26397205     0.19100
H2108       H  0.20060603  0.94917410  0.23588581     0.19100
C2109       C  0.20042191  0.50740259  0.35830504    -0.06700
C2110       C  0.22455154  0.99676419  0.36770035    -0.17900
C2111       C  0.22302169  0.99468222  0.38382420     0.10500
C2112       C  0.19543479  0.00271246  0.39157736    -0.06700
C2113       C  0.17080748  0.51453279  0.38206294    -0.17900
C2114       C  0.17363094  0.51803377  0.36597913     0.10500
S2115       S  0.25650302  0.98070558  0.39407250    -0.32900
S2116       S  0.14322658  0.53823843  0.35615460    -0.32900
H2117       H  0.16316840  0.55489777  0.34650274     0.28500
H2118       H  0.27483519  0.97381767  0.38121932     0.28500
H2119       H  0.24550238  0.98991584  0.36196183     0.19100
H2120       H  0.15029261  0.52303550  0.38770356     0.19100
C2121       C  0.01889708  0.75932607  0.26598692    -0.06700
C2122       C  0.03605217  0.78199689  0.25829085    -0.17900
C2123       C  0.03168382  0.78804525  0.24256614     0.10500
C2124       C  0.00922345  0.77147773  0.23412695    -0.06700
C2125       C  0.49557366  0.74502692  0.24213546    -0.17900
C2126       C  0.50071076  0.73859683  0.25779638     0.10500
S2127       S  0.05652444  0.81626490  0.23382036    -0.32900
S2128       S  0.48214378  0.70516732  0.26580794    -0.32900
H2129       H  0.50593539  0.69789031  0.27617291     0.28500
H2130       H  0.06144980  0.79917853  0.22033552     0.28500
H2131       H  0.05295736  0.79528075  0.26460582     0.19100
H2132       H  0.48019696  0.73031590  0.23563702     0.19100
C2133       C  0.04295889  0.75120873  0.35851449    -0.06700
C2134       C  0.06938752  0.73759897  0.36497871    -0.17900
C2135       C  0.07426686  0.73679041  0.38099620     0.10500
C2136       C  0.05288941  0.75087425  0.39107673    -0.06700
C2137       C  0.52802383  0.76438717  0.38493756    -0.17900
C2138       C  0.52338159  0.76509184  0.36895106     0.10500
S2139       S  0.10712526  0.71555129  0.38780609    -0.32900
S2140       S  0.49054374  0.78636009  0.36206878    -0.32900
H2141       H  0.50673609  0.80081671  0.35006297     0.28500
H2142       H  0.09164854  0.70246168  0.40040678     0.28500
H2143       H  0.08598657  0.72658267  0.35751965     0.19100
H2144       H  0.51145171  0.77572600  0.39229181     0.19100
C2145       C  0.53009848  0.84310002  0.31469459    -0.06700
C2146       C  0.50257469  0.85791860  0.31051456    -0.17900
C2147       C  0.50064831  0.88996925  0.30970555     0.10500
C2148       C  0.52670876  0.90800345  0.31346069    -0.06700
C2149       C  0.05227091  0.89452653  0.31784050    -0.17900
C2150       C  0.05411460  0.86254217  0.31862870     0.10500
S2151       S  0.46483739  0.90601504  0.30296965    -0.32900
S2152       S  0.08976786  0.84657156  0.32564770    -0.32900
H2153       H  0.07532680  0.82489033  0.33525729     0.28500
H2154       H  0.47881039  0.92703096  0.29285548     0.28500
H2155       H  0.48261340  0.84442131  0.30727232     0.19100
H2156       H  0.07230234  0.90793622  0.32107566     0.19100
C2157       C  0.53405009  0.59324237  0.31261597    -0.06700
C2158       C  0.55581297  0.60882133  0.30355154    -0.17900
C2159       C  0.55619225  0.64095747  0.30264124     0.10500
C2160       C  0.53465931  0.65825989  0.31121695    -0.06700
C2161       C  0.01099528  0.64373818  0.31919019    -0.17900
C2162       C  0.01113057  0.61169385  0.32030570     0.10500
S2163       S  0.58367921  0.65817872  0.28973236    -0.32900
S2164       S  0.98404836  0.59462272  0.33348946    -0.32900
H2165       H  0.00553714  0.57393033  0.33977908     0.28500
H2166       H  0.56297595  0.68014911  0.28389847     0.28500
H2167       H  0.57211265  0.59585388  0.29673544     0.19100
H2168       H  0.99427863  0.65652875  0.32584421     0.19100
C2169       C  0.00950499  0.99181775  0.26609117    -0.06700
C2170       C  0.49332994  0.51114725  0.25987530    -0.17900
C2171       C  0.48615913  0.50735254  0.24420076     0.10500
C2172       C  0.99764059  0.98195596  0.23422130    -0.06700
C2173       C  0.01791814  0.96288500  0.24242038    -0.17900
C2174       C  0.02375212  0.96733619  0.25811777     0.10500
S2175       S  0.45636468  0.53142275  0.23625378    -0.32900
S2176       S  0.04879528  0.94012689  0.26746184    -0.32900
H2177       H  0.03034978  0.93753521  0.28063736     0.28500
H2178       H  0.44420916  0.50877386  0.22643034     0.28500
H2179       H  0.48120023  0.52843177  0.26646381     0.19100
H2180       H  0.02968348  0.94441520  0.23650058     0.19100
C2181       C  0.05247350  0.00745192  0.38982170    -0.06700
C2182       C  0.07242345  0.98980278  0.38067015    -0.17900
C2183       C  0.06826727  0.98759410  0.36464398     0.10500
C2184       C  0.04423346  0.00421420  0.35737172    -0.06700
C2185       C  0.52876921  0.51930583  0.36784713    -0.17900
C2186       C  0.53273715  0.52179127  0.38379108     0.10500
S2187       S  0.09287297  0.96137461  0.35436709    -0.32900
S2188       S  0.50568759  0.54556944  0.39402395    -0.32900
H2189       H  0.52792733  0.55807384  0.40398714     0.28500
H2190       H  0.06940624  0.95004153  0.34474374     0.28500
H2191       H  0.09044138  0.97646268  0.38610852     0.19100
H2192       H  0.50939526  0.53085504  0.36253524     0.19100
C2193       C  0.25685699  0.80110551  0.85694133    -0.06700
C2194       C  0.23802748  0.82441337  0.86301103    -0.17900
C2195       C  0.23479705  0.82860447  0.87895430     0.10500
C2196       C  0.25109781  0.80948195  0.88929956    -0.06700
C2197       C  0.27071037  0.78689312  0.88319585    -0.17900
C2198       C  0.27397198  0.78265669  0.86724377     0.10500
S2199       S  0.20763634  0.85697314  0.88533875    -0.32900
S2200       S  0.30112298  0.75453920  0.86021560    -0.32900
H2201       H  0.31233913  0.74497827  0.87461454     0.28500
H2202       H  0.19533131  0.83767900  0.89673549     0.28500
H2203       H  0.22464214  0.83868235  0.85527798     0.19100
H2204       H  0.28375879  0.77257965  0.89102858     0.19100
C2205       C  0.25210885  0.44326111  0.85701452    -0.06700
C2206       C  0.23604168  0.46563604  0.86542662    -0.17900
C2207       C  0.23164757  0.46309475  0.88130112     0.10500
C2208       C  0.24470226  0.43823731  0.88950549    -0.06700
C2209       C  0.26224815  0.91741678  0.88134317    -0.17900
C2210       C  0.26585698  0.91928829  0.86521850     0.10500
S2211       S  0.20761652  0.49162811  0.89023430    -0.32900
S2212       S  0.28544558  0.88810263  0.85579587    -0.32900
H2213       H  0.30226594  0.90709308  0.84575207     0.28500
H2214       H  0.19294432  0.47024573  0.89989425     0.28500
H2215       H  0.22597779  0.48508412  0.85951193     0.19100
H2216       H  0.27083629  0.89732435  0.88731824     0.19100
C2217       C  0.41068998  0.78619201  0.80982804    -0.06700
C2218       C  0.39502518  0.76149958  0.80299459    -0.17900
C2219       C  0.36274113  0.76103068  0.80206531     0.10500
C2220       C  0.34563634  0.78569804  0.80828479    -0.06700
C2221       C  0.36137897  0.81070530  0.81478688    -0.17900
C2222       C  0.39351276  0.81102934  0.81583834     0.10500
S2223       S  0.34392464  0.72967436  0.79215916    -0.32900
S2224       S  0.41090455  0.84292351  0.82585972    -0.32900
H2225       H  0.43250321  0.82479883  0.83381862     0.28500
H2226       H  0.37061181  0.71268142  0.78879937     0.28500
H2227       H  0.40820481  0.74281607  0.79813938     0.19100
H2228       H  0.34851098  0.82958985  0.81969436     0.19100
C2229       C  0.16067183  0.78477035  0.81396696    -0.06700
C2230       C  0.14479684  0.80650727  0.80510743    -0.17900
C2231       C  0.11276333  0.80657518  0.80429427     0.10500
C2232       C  0.09564734  0.78471726  0.81278866    -0.06700
C2233       C  0.11139966  0.76317048  0.82184791    -0.17900
C2234       C  0.14369808  0.76310214  0.82268013     0.10500
S2235       S  0.09550323  0.83411363  0.79145043    -0.32900
S2236       S  0.16254886  0.73627924  0.83547289    -0.32900
H2237       H  0.13577039  0.72455962  0.84242705     0.28500
H2238       H  0.07388901  0.81313883  0.78565868     0.28500
H2239       H  0.15749290  0.82306160  0.79826853     0.19100
H2240       H  0.09827305  0.74671101  0.82851108     0.19100
C2241       C  0.99977098  0.79559588  0.85780645    -0.06700
C2242       C  0.48551509  0.82295322  0.86437797    -0.17900
C2243       C  0.48296688  0.82675010  0.88043579     0.10500
C2244       C  0.99553252  0.80316886  0.89040723    -0.06700
C2245       C  0.00916344  0.77692765  0.88393600    -0.17900
C2246       C  0.01179461  0.77307521  0.86798082     0.10500
S2247       S  0.46046784  0.85871778  0.88724090    -0.32900
S2248       S  0.03235783  0.73952401  0.86151891    -0.32900
H2249       H  0.04973362  0.75557359  0.85047051     0.28500
H2250       H  0.44642632  0.84231851  0.89928766     0.28500
H2251       H  0.47470660  0.83962914  0.85687526     0.19100
H2252       H  0.01888934  0.75951051  0.89142093     0.19100
C2253       C  0.34711598  0.95903152  0.80832708    -0.06700
C2254       C  0.36086218  0.48453505  0.81420254    -0.17900
C2255       C  0.39296446  0.48575975  0.81528813     0.10500
C2256       C  0.41083145  0.46032513  0.81044909    -0.06700
C2257       C  0.39698782  0.93585885  0.80291801    -0.17900
C2258       C  0.36483266  0.93451282  0.80224761     0.10500
S2259       S  0.40913769  0.51988325  0.82380844    -0.32900
S2260       S  0.34852607  0.90083024  0.79333247    -0.32900
H2261       H  0.32587752  0.91700897  0.78526328     0.28500
H2262       H  0.42706580  0.50341401  0.83449270     0.28500
H2263       H  0.34773015  0.50414749  0.81817838     0.19100
H2264       H  0.41011136  0.91698647  0.79811944     0.19100
C2265       C  0.09559827  0.45632959  0.81233583    -0.06700
C2266       C  0.11314747  0.97749185  0.82214719    -0.17900
C2267       C  0.14524672  0.97736836  0.82294288     0.10500
C2268       C  0.16216784  0.95841758  0.81285110    -0.06700
C2269       C  0.14454325  0.43717919  0.80297477    -0.17900
C2270       C  0.11243550  0.43724990  0.80225488     0.10500
S2271       S  0.16300344  0.00074995  0.83758202    -0.32900
S2272       S  0.09460742  0.41424424  0.78747624    -0.32900
H2273       H  0.07287646  0.43674754  0.78333042     0.28500
H2274       H  0.18548089  0.97883443  0.84150503     0.28500
H2275       H  0.10033105  0.99171917  0.83008638     0.19100
H2276       H  0.15726288  0.42276614  0.79506581     0.19100
C2277       C  0.99751952  0.94031983  0.89016354    -0.06700
C2278       C  0.51303544  0.91780544  0.88122017    -0.17900
C2279       C  0.51460096  0.92006141  0.86504400     0.10500
C2280       C  0.00076166  0.94527965  0.85735810    -0.06700
C2281       C  0.98521399  0.46484497  0.86699266    -0.17900
C2282       C  0.98341373  0.46267170  0.88303886     0.10500
S2283       S  0.53744182  0.89190854  0.85512450    -0.32900
S2284       S  0.96174509  0.49222604  0.89266316    -0.32900
H2285       H  0.94657689  0.47157842  0.90251673     0.28500
H2286       H  0.51222071  0.88053261  0.84671101     0.28500
H2287       H  0.52515688  0.89929778  0.88694462     0.19100
H2288       H  0.97443557  0.48430205  0.86137866     0.19100
C2289       C  0.23464210  0.76048248  0.73326589    -0.06700
C2290       C  0.21408793  0.74758468  0.74395518    -0.17900
C2291       C  0.21773166  0.75219279  0.75984932     0.10500
C2292       C  0.24281215  0.76972491  0.76545507    -0.06700
C2293       C  0.26322011  0.78285204  0.75482378    -0.17900
C2294       C  0.25932073  0.77871511  0.73891709     0.10500
S2295       S  0.18865636  0.73646991  0.77235544    -0.32900
S2296       S  0.28562727  0.79891840  0.72648783    -0.32900
H2297       H  0.26252859  0.80915180  0.71635785     0.28500
H2298       H  0.18774849  0.76209807  0.78216578     0.28500
H2299       H  0.19476753  0.73404345  0.73989601     0.19100
H2300       H  0.28221356  0.79678911  0.75894487     0.19100
C2301       C  0.20619891  0.75180363  0.64136410    -0.06700
C2302       C  0.18127473  0.73620434  0.63459779    -0.17900
C2303       C  0.17663382  0.73632476  0.61858087     0.10500
C2304       C  0.19637548  0.75369881  0.60893335    -0.06700
C2305       C  0.22116999  0.76937436  0.61575802    -0.17900
C2306       C  0.22616203  0.76882366  0.63168384     0.10500
S2307       S  0.14671669  0.71182322  0.61117070    -0.32900
S2308       S  0.25760636  0.79172877  0.63892049    -0.32900
H2309       H  0.24081731  0.80363770  0.65138180     0.28500
H2310       H  0.16400595  0.70149523  0.59852867     0.28500
H2311       H  0.16597924  0.72273721  0.64178375     0.19100
H2312       H  0.23658128  0.78283475  0.60863086     0.19100
C2313       C  0.22066129  0.90819304  0.68606038    -0.06700
C2314       C  0.19351671  0.89259728  0.68201224    -0.17900
C2315       C  0.19260138  0.86051563  0.68111787     0.10500
C2316       C  0.21918534  0.84325320  0.68490435    -0.06700
C2317       C  0.24640203  0.85886303  0.68869486    -0.17900
C2318       C  0.24744303  0.89085451  0.68944646     0.10500
S2319       S  0.15731414  0.84335961  0.67431138    -0.32900
S2320       S  0.28334987  0.90758604  0.69564903    -0.32900
H2321       H  0.26931672  0.92840032  0.70573323     0.28500
H2322       H  0.17216949  0.82178111  0.66482864     0.28500
H2323       H  0.17298044  0.90553459  0.67910086     0.19100
H2324       H  0.26694121  0.84599434  0.69167503     0.19100
C2325       C  0.21966501  0.65844869  0.68870279    -0.06700
C2326       C  0.19782048  0.64340449  0.69794073    -0.17900
C2327       C  0.19603557  0.61128812  0.69849683     0.10500
C2328       C  0.21709452  0.59339890  0.68993390    -0.06700
C2329       C  0.23901991  0.60851182  0.68076887    -0.17900
C2330       C  0.24005709  0.64056626  0.67976211     0.10500
S2331       S  0.16731902  0.59465383  0.71084805    -0.32900
S2332       S  0.26651767  0.65696527  0.66606928    -0.32900
H2333       H  0.24544312  0.67883787  0.66046236     0.28500
H2334       H  0.15043701  0.58250042  0.69844230     0.28500
H2335       H  0.18194226  0.65678855  0.70482711     0.19100
H2336       H  0.25486308  0.59518867  0.67383235     0.19100
C2337       C  0.24495881  0.47567597  0.76552676    -0.06700
C2338       C  0.22212478  0.49699256  0.76133028    -0.17900
C2339       C  0.21693959  0.50499845  0.74591312     0.10500
C2340       C  0.23474474  0.49132185  0.73417696    -0.06700
C2341       C  0.25428097  0.96503967  0.73803771    -0.17900
C2342       C  0.25943289  0.95757832  0.75349450     0.10500
S2343       S  0.18810114  0.53373298  0.74206004    -0.32900
S2344       S  0.28579551  0.92688407  0.75750127    -0.32900
H2345       H  0.30389526  0.94612488  0.76683024     0.28500
H2346       H  0.20454847  0.54770221  0.73001071     0.28500
H2347       H  0.20814588  0.50754960  0.77016157     0.19100
H2348       H  0.26545938  0.95152622  0.72925886     0.19100
C2349       C  0.19812521  0.00510500  0.60997889    -0.06700
C2350       C  0.17360173  0.51731569  0.61940659    -0.17900
C2351       C  0.17650211  0.51801005  0.63553984     0.10500
C2352       C  0.20604937  0.00641116  0.64242724    -0.06700
C2353       C  0.22716272  0.99109864  0.63295558    -0.17900
C2354       C  0.22324761  0.98978143  0.61700484     0.10500
S2355       S  0.14779794  0.53905806  0.64612821    -0.32900
S2356       S  0.25025484  0.96649287  0.60645207    -0.32900
H2357       H  0.22777622  0.95340663  0.59678333     0.28500
H2358       H  0.16890941  0.55267618  0.65634717     0.28500
H2359       H  0.15436717  0.52905395  0.61406001     0.19100
H2360       H  0.24642376  0.97903023  0.63808209     0.19100
C2361       C  0.01147373  0.77152677  0.76530904    -0.06700
C2362       C  0.03436128  0.78814013  0.75747526    -0.17900
C2363       C  0.04185329  0.78184554  0.74207020     0.10500
C2364       C  0.02612538  0.75832514  0.73396508    -0.06700
C2365       C  0.50297056  0.74100934  0.74204197    -0.17900
C2366       C  0.49566868  0.74735334  0.75749431     0.10500
S2367       S  0.07099965  0.80549761  0.73326986    -0.32900
S2368       S  0.46498733  0.72537288  0.76610662    -0.32900
H2369       H  0.45360456  0.74964019  0.77513657     0.28500
H2370       H  0.05498631  0.80891836  0.71932718     0.28500
H2371       H  0.04682011  0.80609996  0.76341718     0.19100
H2372       H  0.49056523  0.72295476  0.73609461     0.19100
C2373       C  0.06005509  0.73667214  0.64290417    -0.06700
C2374       C  0.08186920  0.75660193  0.63628348    -0.17900
C2375       C  0.08477262  0.75959977  0.62021034     0.10500
C2376       C  0.06612319  0.74154918  0.61030610    -0.06700
C2377       C  0.54233043  0.72247547  0.61691671    -0.17900
C2378       C  0.53890941  0.71969543  0.63290316     0.10500
S2379       S  0.11132830  0.78824427  0.61319793    -0.32900
S2380       S  0.51101225  0.69228012  0.63982633    -0.32900
H2381       H  0.52822303  0.68336638  0.65279762     0.28500
H2382       H  0.09325224  0.79735761  0.60059551     0.28500
H2383       H  0.09567519  0.77117484  0.64368005     0.19100
H2384       H  0.52781665  0.70866046  0.60949661     0.19100
C2385       C  0.04685241  0.90026003  0.68537276    -0.06700
C2386       C  0.52230292  0.88473953  0.67763591    -0.17900
C2387       C  0.52105323  0.85263610  0.67696472     0.10500
C2388       C  0.54373479  0.83511586  0.68465322    -0.06700
C2389       C  0.06973259  0.85074911  0.69136968    -0.17900
C2390       C  0.07087251  0.88273294  0.69206701     0.10500
S2391       S  0.49090779  0.83569597  0.66550030    -0.32900
S2392       S  0.10298688  0.89916912  0.70234907    -0.32900
H2393       H  0.08437553  0.91774631  0.71174847     0.28500
H2394       H  0.51006926  0.81317592  0.65894469     0.28500
H2395       H  0.50468712  0.89790104  0.67173208     0.19100
H2396       H  0.08796866  0.83779206  0.69692259     0.19100
C2397       C  0.04270602  0.58534402  0.69228100    -0.06700
C2398       C  0.07050097  0.60109627  0.68969684    -0.17900
C2399       C  0.07180113  0.63322179  0.68927131     0.10500
C2400       C  0.54353407  0.65065013  0.69125060    -0.06700
C2401       C  0.51827376  0.63468691  0.69740326    -0.17900
C2402       C  0.51786067  0.60250434  0.69809424     0.10500
S2403       S  0.10853253  0.65009552  0.68453917    -0.32900
S2404       S  0.48565824  0.58464528  0.70763584    -0.32900
H2405       H  0.50338922  0.56173248  0.71486042     0.28500
H2406       H  0.09629525  0.66952532  0.67312876     0.28500
H2407       H  0.09136438  0.58828742  0.68739132     0.19100
H2408       H  0.49901482  0.64740626  0.70208496     0.19100
C2409       C  0.52677901  0.48308766  0.73463913    -0.06700
C2410       C  0.03877004  0.50287310  0.74540498    -0.17900
C2411       C  0.03301804  0.49900326  0.76119350     0.10500
C2412       C  0.01703295  0.97457664  0.76538326    -0.06700
C2413       C  0.50547208  0.95367057  0.75437571    -0.17900
C2414       C  0.51170796  0.95686094  0.73859121     0.10500
S2415       S  0.05168704  0.52555594  0.77407262    -0.32900
S2416       S  0.49652195  0.92789649  0.72586348    -0.32900
H2417       H  0.52273143  0.92685768  0.71643148     0.28500
H2418       H  0.06243279  0.50246987  0.78405467     0.28500
H2419       H  0.05291947  0.52195013  0.74161483     0.19100
H2420       H  0.49111822  0.93476814  0.75816298     0.19100
C2421       C  0.06208633  0.99787095  0.60883497    -0.06700
C2422       C  0.08320839  0.98099258  0.61773258    -0.17900
C2423       C  0.08092602  0.97973530  0.63387260     0.10500
C2424       C  0.55800902  0.49636947  0.64292683    -0.06700
C2425       C  0.53612517  0.51150631  0.63372538    -0.17900
C2426       C  0.53883126  0.51288190  0.61765616     0.10500
S2427       S  0.10710093  0.95452991  0.64384680    -0.32900
S2428       S  0.51031540  0.53518670  0.60753499    -0.32900
H2429       H  0.53154853  0.54869579  0.59735076     0.28500
H2430       H  0.08466234  0.94265246  0.65389117     0.28500
H2431       H  0.10079865  0.96754238  0.61203826     0.19100
H2432       H  0.51684027  0.52298016  0.63913655     0.19100
O2433       O  0.56014018  0.49100070  0.71288069    -0.72400
O2434       O  0.57686716  0.99478846  0.66782482    -0.72600
O2435       O  0.56969722  0.03590454  0.69089176    -0.72500
O2436       O  0.56807879  0.44963701  0.69028507    -0.72500
O2437       O  0.02006508  0.44901153  0.68529056    -0.72400
O2438       O  0.01851004  0.03568540  0.68782175    -0.72500
O2439       O  0.02678835  0.49574623  0.66532229    -0.72400
O2440       O  0.01298997  0.98737364  0.70727838    -0.72600
V2441       V  0.56908626  0.99239113  0.68947030     1.35200
V2442       V  0.02071163  0.99214801  0.68584223     1.35200
C2443       C  0.03525982  0.98704745  0.71666138     0.76800
C2444       C  0.05316745  0.99586014  0.65858358     0.76900
C2445       C  0.54477440  0.05075958  0.68984922     0.76800
C2446       C  0.54378216  0.43455282  0.68768837     0.76700
O2447       O  0.01143630  0.24528137  0.70825744    -0.72400
O2448       O  0.02419928  0.23979583  0.66492886    -0.72600
O2449       O  0.01814726  0.19874350  0.68784703    -0.72500
O2450       O  0.01775194  0.28598757  0.68527696    -0.72500
O2451       O  0.56720990  0.28694224  0.68812824    -0.72400
O2452       O  0.56927460  0.20029357  0.69238675    -0.72500
O2453       O  0.57476466  0.23987710  0.66863552    -0.72400
O2454       O  0.56148022  0.24843100  0.71193364    -0.72600
V2455       V  0.01883915  0.24239903  0.68665696     1.35200
V2456       V  0.56722932  0.24371508  0.69023458     1.35200
C2457       C  0.53448421  0.24842381  0.71747925     0.76800
C2458       C  0.55218401  0.23887723  0.65940071     0.76900
C2459       C  0.04304020  0.18430363  0.69004556     0.76800
C2460       C  0.04258311  0.30111568  0.68612198     0.76700
O2461       O  0.73784707  0.00472630  0.66462176    -0.72400
O2462       O  0.74960144  0.49886823  0.70770210    -0.72600
O2463       O  0.74265512  0.45885020  0.68472684    -0.72500
O2464       O  0.74605854  0.04493094  0.68771752    -0.72500
O2465       O  0.69674858  0.04529475  0.69148952    -0.72400
O2466       O  0.69374562  0.45693242  0.68969640    -0.72500
O2467       O  0.70330530  0.99885165  0.71180976    -0.72400
O2468       O  0.68462304  0.50231760  0.66893254    -0.72600
V2469       V  0.74075210  0.50208704  0.68627125     1.35200
V2470       V  0.69353438  0.50066610  0.69045742     1.35200
C2471       C  0.70656066  0.50422908  0.65940155     0.76800
C2472       C  0.72769178  0.49736119  0.71726484     0.76900
C2473       C  0.71884997  0.44300622  0.68723009     0.76800
C2474       C  0.72167557  0.06006861  0.69005937     0.76700
O2475       O  0.70756369  0.25278555  0.71276767    -0.72400
O2476       O  0.69430127  0.25054035  0.66924487    -0.72600
O2477       O  0.70172352  0.20800200  0.69143137    -0.72500
O2478       O  0.69952401  0.29479449  0.69047956    -0.72500
O2479       O  0.74860749  0.29610034  0.68589441    -0.72400
O2480       O  0.75131470  0.20884529  0.68861971    -0.72500
O2481       O  0.74371994  0.24993524  0.66573904    -0.72400
O2482       O  0.75683016  0.25578417  0.70887857    -0.72600
V2483       V  0.70174579  0.25144122  0.69094352     1.35200
V2484       V  0.74918590  0.25251895  0.68738436     1.35200
C2485       C  0.73450522  0.25599867  0.71819634     0.76800
C2486       C  0.71692433  0.25063731  0.66003935     0.76900
C2487       C  0.72671441  0.19345943  0.69003242     0.76800
C2488       C  0.72339413  0.31027526  0.68758896     0.76700
O2489       O  0.00931025  0.99143087  0.79157481    -0.72400
O2490       O  0.50157325  0.97696069  0.83466900    -0.72600
O2491       O  0.54884446  0.98318662  0.81479861    -0.72500
O2492       O  0.96206689  0.98537944  0.81161710    -0.72500
O2493       O  0.95937271  0.43415062  0.80927131    -0.72400
O2494       O  0.54679547  0.43313903  0.81053576    -0.72500
O2495       O  0.00206536  0.42549512  0.83143235    -0.72400
O2496       O  0.50508804  0.44199829  0.78840320    -0.72600
V2497       V  0.50544782  0.98319662  0.81296315     1.35200
V2498       V  0.50331258  0.43501750  0.81012293     1.35200
C2499       C  0.50880938  0.46909716  0.78333614     0.76800
C2500       C  0.50106293  0.44821568  0.84129275     0.76900
C2501       C  0.56350013  0.95876143  0.81205600     0.76800
C2502       C  0.94665574  0.96093635  0.81012784     0.76700
O2503       O  0.01319957  0.30157065  0.78776031    -0.72400
O2504       O  0.50639407  0.31415108  0.83126545    -0.72600
O2505       O  0.55296698  0.30668617  0.81128405    -0.72500
O2506       O  0.96633772  0.30978020  0.80781528    -0.72500
O2507       O  0.96484727  0.26085083  0.81257236    -0.72400
O2508       O  0.55259265  0.25727846  0.81465941    -0.72500
O2509       O  0.00702812  0.26706496  0.83503769    -0.72400
O2510       O  0.51059949  0.25000957  0.79222955    -0.72600
V2511       V  0.50956852  0.30573603  0.80969243     1.35200
V2512       V  0.50885827  0.25852986  0.81372435     1.35200
C2513       C  0.51302619  0.27188945  0.78271571     0.76800
C2514       C  0.50669918  0.29200394  0.84074131     0.76900
C2515       C  0.56768108  0.28197154  0.81314941     0.76800
C2516       C  0.95066714  0.28572718  0.81001249     0.76700
O2517       O  0.75353879  0.42606768  0.83026544    -0.72400
O2518       O  0.75144067  0.44242034  0.78682391    -0.72600
O2519       O  0.79620415  0.43378017  0.80803450    -0.72500
O2520       O  0.70915530  0.43389669  0.80906420    -0.72500
O2521       O  0.71112563  0.98455097  0.81429260    -0.72400
O2522       O  0.79827789  0.98463238  0.81100983    -0.72500
O2523       O  0.75095181  0.99210985  0.79129338    -0.72400
O2524       O  0.75771683  0.97773004  0.83416207    -0.72600
V2525       V  0.75266235  0.43492757  0.80860621     1.35200
V2526       V  0.75463429  0.98377829  0.81261785     1.35200
C2527       C  0.75628179  0.95095787  0.83978334     0.76800
C2528       C  0.75077290  0.97023437  0.78177029     0.76900
C2529       C  0.81131961  0.45846601  0.80899538     0.76800
C2530       C  0.69450506  0.45783619  0.81271293     0.76700
O2531       O  0.76333312  0.26532293  0.83634237    -0.72400
O2532       O  0.75510546  0.25144135  0.79327415    -0.72600
O2533       O  0.80313167  0.25905414  0.81265464    -0.72500
O2534       O  0.71611659  0.25785098  0.81688695    -0.72500
O2535       O  0.71483354  0.30670049  0.81194184    -0.72400
O2536       O  0.80193650  0.30856849  0.80982323    -0.72500
O2537       O  0.75617000  0.30066322  0.78926628    -0.72400
O2538       O  0.75980873  0.31445283  0.83260674    -0.72600
V2539       V  0.75955712  0.25936995  0.81472538     1.35200
V2540       V  0.75833546  0.30666175  0.81099466     1.35200
C2541       C  0.76162884  0.29212572  0.84192085     0.76800
C2542       C  0.75367708  0.27369040  0.78392666     0.76900
C2543       C  0.81741728  0.28401693  0.81045330     0.76800
C2544       C  0.70059635  0.28207127  0.81491892     0.76700
O2545       O  0.01114130  0.00441452  0.33532342    -0.72400
O2546       O  0.00105448  0.50006591  0.29311306    -0.72600
O2547       O  0.00953804  0.45812455  0.31523166    -0.72500
O2548       O  0.00478228  0.04661022  0.31298679    -0.72500
O2549       O  0.55502327  0.04294455  0.30833423    -0.72400
O2550       O  0.55785888  0.45703475  0.31115476    -0.72500
O2551       O  0.54513480  0.99684188  0.28776220    -0.72400
O2552       O  0.56589806  0.50183206  0.33209188    -0.72600
V2553       V  0.01008585  0.50166519  0.31459026     1.35200
V2554       V  0.55692569  0.50052182  0.31057472     1.35200
C2555       C  0.54400609  0.50198032  0.34170290     0.76800
C2556       C  0.52242029  0.49766128  0.28381353     0.76900
C2557       C  0.03420578  0.44340636  0.31302790     0.76800
C2558       C  0.03004963  0.06041796  0.31073185     0.76700
O2559       O  0.01718475  0.25128739  0.33390957    -0.72400
O2560       O  0.00575151  0.25358370  0.29058232    -0.72600
O2561       O  0.01165786  0.20871035  0.31167663    -0.72500
O2562       O  0.01159729  0.29580641  0.31288915    -0.72500
O2563       O  0.56067823  0.29473259  0.31010533    -0.72400
O2564       O  0.56099596  0.20751392  0.30820533    -0.72500
O2565       O  0.55444689  0.25350699  0.28734570    -0.72400
O2566       O  0.56684964  0.24960419  0.33098556    -0.72600
V2567       V  0.01255844  0.25227452  0.31218860     1.35200
V2568       V  0.55982263  0.25120909  0.30920303     1.35200
C2569       C  0.54399221  0.25001385  0.34006006     0.76800
C2570       C  0.52746653  0.25388340  0.28171712     0.76900
C2571       C  0.03629156  0.19381236  0.30958232     0.76800
C2572       C  0.03651081  0.31078010  0.31210393     0.76700
O2573       O  0.73049907  0.50609767  0.33500957    -0.72400
O2574       O  0.74166587  0.00056141  0.29181300    -0.72600
O2575       O  0.73440650  0.04728936  0.31211307    -0.72500
O2576       O  0.73643271  0.46045963  0.31440565    -0.72500
O2577       O  0.68667287  0.46004449  0.31210402    -0.72400
O2578       O  0.68514696  0.04578830  0.30828304    -0.72500
O2579       O  0.69259261  0.49881864  0.28834000    -0.72400
O2580       O  0.67967553  0.00557858  0.33182845    -0.72600
V2581       V  0.73423287  0.00357413  0.31341456     1.35200
V2582       V  0.68674044  0.00237790  0.31005524     1.35200
C2583       C  0.70247305  0.00648194  0.34098074     0.76800
C2584       C  0.71929199  0.99725338  0.28261576     0.76900
C2585       C  0.70931994  0.06156022  0.31002583     0.76800
C2586       C  0.71151767  0.44538864  0.31383480     0.76700
O2587       O  0.69061266  0.25686081  0.28924644    -0.72400
O2588       O  0.67852483  0.25139781  0.33283692    -0.72600
O2589       O  0.68411258  0.29742623  0.31220223    -0.72500
O2590       O  0.68504359  0.21027690  0.30967356    -0.72500
O2591       O  0.73445179  0.21051737  0.31311023    -0.72400
O2592       O  0.73358501  0.29757805  0.31567828    -0.72500
O2593       O  0.72803668  0.25121428  0.33614986    -0.72400
O2594       O  0.74000274  0.25711231  0.29276560    -0.72600
V2595       V  0.68550149  0.25392281  0.31108374     1.35200
V2596       V  0.73302285  0.25406152  0.31438343     1.35200
C2597       C  0.71743247  0.25839406  0.28353745     0.76800
C2598       C  0.70131299  0.25025943  0.34196135     0.76900
C2599       C  0.70881731  0.31241834  0.31391602     0.76800
C2600       C  0.71000663  0.19541965  0.31079218     0.76700
O2601       O  0.03577023  0.00393779  0.45881422    -0.72400
O2602       O  0.03740848  0.50602370  0.41636400    -0.72600
O2603       O  0.03898559  0.46162420  0.43776514    -0.72500
O2604       O  0.03331831  0.04809967  0.43726866    -0.72500
O2605       O  0.58290214  0.04720255  0.43612875    -0.72400
O2606       O  0.58962514  0.45947556  0.43540096    -0.72500
O2607       O  0.58112659  0.00425978  0.41373517    -0.72400
O2608       O  0.59320282  0.50088213  0.45854454    -0.72600
V2609       V  0.04127953  0.50515669  0.43814044     1.35200
V2610       V  0.58922470  0.50311543  0.43666408     1.35200
C2611       C  0.56932094  0.50204065  0.46688837     0.76800
C2612       C  0.56088749  0.50570884  0.40817149     0.76900
C2613       C  0.06327470  0.44603642  0.43598521     0.76800
C2614       C  0.05828582  0.06309000  0.43713727     0.76700
O2615       O  0.03478649  0.25450303  0.45877616    -0.72400
O2616       O  0.03142175  0.25418278  0.41491396    -0.72600
O2617       O  0.03315739  0.21075797  0.43680686    -0.72500
O2618       O  0.03305544  0.29808189  0.43673602    -0.72500
O2619       O  0.58464244  0.29617568  0.43518312    -0.72400
O2620       O  0.58332542  0.20896865  0.43681928    -0.72500
O2621       O  0.58237127  0.25090724  0.41409141    -0.72400
O2622       O  0.58542451  0.25383712  0.45813666    -0.72600
V2623       V  0.03407799  0.25438587  0.43680103     1.35200
V2624       V  0.58299989  0.25255936  0.43609982     1.35200
C2625       C  0.56092890  0.25368239  0.46610105     0.76800
C2626       C  0.55681041  0.25145424  0.40703626     0.76900
C2627       C  0.05815360  0.19587478  0.43669844     0.76800
C2628       C  0.05799590  0.31293918  0.43566385     0.76700
O2629       O  0.71626118  0.00274237  0.41680366    -0.72400
O2630       O  0.71138186  0.49763164  0.46018156    -0.72600
O2631       O  0.71564832  0.45670122  0.43712036    -0.72500
O2632       O  0.71181303  0.04320634  0.44012184    -0.72500
O2633       O  0.66230127  0.04174855  0.43671964    -0.72400
O2634       O  0.66573115  0.45486833  0.43725026    -0.72500
O2635       O  0.66092146  0.99883174  0.45895996    -0.72400
O2636       O  0.66677225  0.49813860  0.41478989    -0.72600
V2637       V  0.71280914  0.50032759  0.43835258     1.35200
V2638       V  0.66496571  0.49850369  0.43686987     1.35200
C2639       C  0.69262061  0.50097913  0.40812024     0.76800
C2640       C  0.68570744  0.49822060  0.46702959     0.76900
C2641       C  0.69123276  0.44081970  0.43719157     0.76800
C2642       C  0.68649939  0.05735924  0.43880915     0.76700
O2643       O  0.65910172  0.24919805  0.45999602    -0.72400
O2644       O  0.66307015  0.25082612  0.41594706    -0.72600
O2645       O  0.65963436  0.20607902  0.43747176    -0.72500
O2646       O  0.66249741  0.29341551  0.43851251    -0.72500
O2647       O  0.71240992  0.29187145  0.43890621    -0.72400
O2648       O  0.70946365  0.20458539  0.43932126    -0.72500
O2649       O  0.71286047  0.24773085  0.41713950    -0.72400
O2650       O  0.70903111  0.24859987  0.46096466    -0.72600
V2651       V  0.66201880  0.24979344  0.43798971     1.35200
V2652       V  0.70994708  0.24822659  0.43905059     1.35200
C2653       C  0.68352251  0.24889503  0.46800465     0.76800
C2654       C  0.68871575  0.24963036  0.40899974     0.76900
C2655       C  0.68410804  0.19040612  0.43831960     0.76800
C2656       C  0.68790744  0.30757382  0.43895995     0.76700
O2657       O  0.49470518  0.41343808  0.04313565    -0.72400
O2658       O  0.99381287  0.42198367  0.08665692    -0.72600
O2659       O  0.95062539  0.41594961  0.06464353    -0.72500
O2660       O  0.53765180  0.41883245  0.06530837    -0.72500
O2661       O  0.53519788  0.96450555  0.06215719    -0.72400
O2662       O  0.94755041  0.96053293  0.06172743    -0.72500
O2663       O  0.49172361  0.96580343  0.08399376    -0.72400
O2664       O  0.99162312  0.95959864  0.04010793    -0.72600
V2665       V  0.99418993  0.41827096  0.06471578     1.35200
V2666       V  0.99127574  0.96158865  0.06198019     1.35200
C2667       C  0.99335265  0.93384263  0.03342211     0.76800
C2668       C  0.99228096  0.94206446  0.09226815     0.76900
C2669       C  0.93495726  0.44013232  0.06302776     0.76800
C2670       C  0.55204866  0.44402030  0.06455850     0.76700
O2671       O  0.00115830  0.33332495  0.04067062    -0.72400
O2672       O  0.49751314  0.33021550  0.08497410    -0.72600
O2673       O  0.54305147  0.33235685  0.06390703    -0.72500
O2674       O  0.95610240  0.33255815  0.06168719    -0.72500
O2675       O  0.95580553  0.28273709  0.06070258    -0.72400
O2676       O  0.54311822  0.28254364  0.06327641    -0.72500
O2677       O  0.99701948  0.28083318  0.08368015    -0.72400
O2678       O  0.50186054  0.28397135  0.04020587    -0.72600
V2679       V  0.49938556  0.33118076  0.06296974     1.35200
V2680       V  0.49952748  0.28331695  0.06201288     1.35200
C2681       C  0.50165236  0.30929905  0.03308709     0.76800
C2682       C  0.49587577  0.30455091  0.09185426     0.76900
C2683       C  0.55803461  0.30747257  0.06381883     0.76800
C2684       C  0.94109409  0.30779300  0.06058408     0.76700
O2685       O  0.74400251  0.42079105  0.08495904    -0.72400
O2686       O  0.74334449  0.41366606  0.04098390    -0.72600
O2687       O  0.78699100  0.41638337  0.06282271    -0.72500
O2688       O  0.69978903  0.41776803  0.06306275    -0.72500
O2689       O  0.69915109  0.96429676  0.06183535    -0.72400
O2690       O  0.78657348  0.96241674  0.06121802    -0.72500
O2691       O  0.74218488  0.96115103  0.03976994    -0.72400
O2692       O  0.74333217  0.96593363  0.08354732    -0.72600
V2693       V  0.74347592  0.41810231  0.06293143     1.35200
V2694       V  0.74283163  0.96246009  0.06165617     1.35200
C2695       C  0.74295692  0.94200067  0.09183283     0.76800
C2696       C  0.74201527  0.93558776  0.03284727     0.76900
C2697       C  0.80222452  0.44083549  0.06100943     0.76800
C2698       C  0.68516290  0.44283447  0.06243073     0.76700
O2699       O  0.75115268  0.28348976  0.08478400    -0.72400
O2700       O  0.74713664  0.28763186  0.04098966    -0.72600
O2701       O  0.79237035  0.28447708  0.06183640    -0.72500
O2702       O  0.70569435  0.28635917  0.06396135    -0.72500
O2703       O  0.70637587  0.33616226  0.06517181    -0.72400
O2704       O  0.79397852  0.33420576  0.06292664    -0.72500
O2705       O  0.74791768  0.33743223  0.04208401    -0.72400
O2706       O  0.75225180  0.33324607  0.08601040    -0.72600
V2707       V  0.74906392  0.28651942  0.06291643     1.35200
V2708       V  0.75013623  0.33435279  0.06402309     1.35200
C2709       C  0.75253501  0.30758668  0.09291860     0.76800
C2710       C  0.74691053  0.31320210  0.03401815     0.76900
C2711       C  0.80811196  0.30880481  0.06208805     0.76800
C2712       C  0.69114932  0.31136230  0.06503360     0.76700
O2713       O  0.99508485  0.98708254  0.16464724    -0.72400
O2714       O  0.49262165  0.99881383  0.20804367    -0.72600
O2715       O  0.53729720  0.99366899  0.18692568    -0.72500
O2716       O  0.95025538  0.99205123  0.18578954    -0.72500
O2717       O  0.94966612  0.44937078  0.19199720    -0.72400
O2718       O  0.53678595  0.44883259  0.18916067    -0.72500
O2719       O  0.99720019  0.45375518  0.21218081    -0.72400
O2720       O  0.49028480  0.44439701  0.16891584    -0.72600
V2721       V  0.49372710  0.99129974  0.18640637     1.35200
V2722       V  0.49333191  0.45018321  0.19066201     1.35200
C2723       C  0.49119444  0.46747255  0.16000705     0.76800
C2724       C  0.49695372  0.48080155  0.21852214     0.76900
C2725       C  0.55288809  0.96931685  0.18816742     0.76800
C2726       C  0.93596011  0.96700806  0.18762102     0.76700
O2727       O  0.99465188  0.31578317  0.16762423    -0.72400
O2728       O  0.50113500  0.30180891  0.21116728    -0.72600
O2729       O  0.54030694  0.30884024  0.18793735    -0.72500
O2730       O  0.95354005  0.30872452  0.19053751    -0.72500
O2731       O  0.95375712  0.25943597  0.18715918    -0.72400
O2732       O  0.54021541  0.25941452  0.18470379    -0.72500
O2733       O  0.00085026  0.25368167  0.20733372    -0.72400
O2734       O  0.49434300  0.26572177  0.16415822    -0.72600
V2735       V  0.49694352  0.30745838  0.18947179     1.35200
V2736       V  0.49667686  0.26009123  0.18587996     1.35200
C2737       C  0.49367177  0.29261273  0.15859120     0.76800
C2738       C  0.50283732  0.27487881  0.21664134     0.76900
C2739       C  0.55514445  0.28414431  0.18625942     0.76800
C2740       C  0.93861151  0.28390702  0.18899833     0.76700
O2741       O  0.74039996  0.45316015  0.21108487    -0.72400
O2742       O  0.74588120  0.44111571  0.16750231    -0.72600
O2743       O  0.78697451  0.44772898  0.19073107    -0.72500
O2744       O  0.69987631  0.44639142  0.18808703    -0.72500
O2745       O  0.70117015  0.99070303  0.18707904    -0.72400
O2746       O  0.78831380  0.98912619  0.18557379    -0.72500
O2747       O  0.74286144  0.98348126  0.16452776    -0.72400
O2748       O  0.74601421  0.99642116  0.20801189    -0.72600
V2749       V  0.74337546  0.44803162  0.18926314     1.35200
V2750       V  0.74468807  0.98898083  0.18633353     1.35200
C2751       C  0.74280829  0.97416129  0.21726999     0.76800
C2752       C  0.74366854  0.95669726  0.15881415     0.76900
C2753       C  0.80174066  0.47256469  0.18915844     0.76800
C2754       C  0.68474711  0.47103964  0.18694414     0.76700
O2755       O  0.74079554  0.25603311  0.20867300    -0.72400
O2756       O  0.75075631  0.26968685  0.16558001    -0.72600
O2757       O  0.78956193  0.26213568  0.18946408    -0.72500
O2758       O  0.70278425  0.26358281  0.18482663    -0.72500
O2759       O  0.70258637  0.31221652  0.19031635    -0.72400
O2760       O  0.78983962  0.31171699  0.19154145    -0.72500
O2761       O  0.74731571  0.31877282  0.16926257    -0.72400
O2762       O  0.74463405  0.30511820  0.21271744    -0.72600
V2763       V  0.74607667  0.26378006  0.18721316     1.35200
V2764       V  0.74616794  0.31103873  0.19090541     1.35200
C2765       C  0.74086308  0.27826475  0.21805297     0.76800
C2766       C  0.74969966  0.29654991  0.15994957     0.76900
C2767       C  0.80472106  0.28682334  0.19090912     0.76800
C2768       C  0.68783132  0.28804606  0.18708570     0.76700
O2769       O  0.99819115  0.96236136  0.91554059    -0.72400
O2770       O  0.49610733  0.95827093  0.95922580    -0.72600
O2771       O  0.54049363  0.95995158  0.93774147    -0.72500
O2772       O  0.95341988  0.96067755  0.93682243    -0.72500
O2773       O  0.95310068  0.40701638  0.93686942    -0.72400
O2774       O  0.54035193  0.41045890  0.93820290    -0.72500
O2775       O  0.99619992  0.40749071  0.95933063    -0.72400
O2776       O  0.49763830  0.41078313  0.91545773    -0.72600
V2777       V  0.49689439  0.95881337  0.93732772     1.35200
V2778       V  0.49664919  0.41017541  0.93757705     1.35200
C2779       C  0.49753465  0.43637366  0.90842656     0.76800
C2780       C  0.49348939  0.43235918  0.96741063     0.76900
C2781       C  0.55558964  0.93514035  0.93760221     0.76800
C2782       C  0.93846817  0.93577669  0.93661755     0.76700
O2783       O  0.99767833  0.33288627  0.91415708    -0.72400
O2784       O  0.49317918  0.33527314  0.95825543    -0.72600
O2785       O  0.53914893  0.33502743  0.93753978    -0.72500
O2786       O  0.95214530  0.33338907  0.93501751    -0.72500
O2787       O  0.95243321  0.28360436  0.93644479    -0.72400
O2788       O  0.54013455  0.28514107  0.93772881    -0.72500
O2789       O  0.99545688  0.28492307  0.95859253    -0.72400
O2790       O  0.49766785  0.28286468  0.91524523    -0.72600
V2791       V  0.49565486  0.33313498  0.93625685     1.35200
V2792       V  0.49644051  0.28525548  0.93707229     1.35200
C2793       C  0.49851582  0.30715553  0.90724935     0.76800
C2794       C  0.49405398  0.31069769  0.96610668     0.76900
C2795       C  0.55448997  0.31041278  0.93813684     0.76800
C2796       C  0.93740614  0.30843352  0.93578693     0.76700
O2797       O  0.74665959  0.40928613  0.95774527    -0.72400
O2798       O  0.74378766  0.41158836  0.91367240    -0.72600
O2799       O  0.78861836  0.40868269  0.93492230    -0.72500
O2800       O  0.70133028  0.41218635  0.93666748    -0.72500
O2801       O  0.70379009  0.96348250  0.93662312    -0.72400
O2802       O  0.79103342  0.96328135  0.93687483    -0.72500
O2803       O  0.74800324  0.96506511  0.91492672    -0.72400
O2804       O  0.74689082  0.96145013  0.95873106    -0.72600
V2805       V  0.74507972  0.41136648  0.93574703     1.35200
V2806       V  0.74741250  0.96232199  0.93677981     1.35200
C2807       C  0.74753863  0.93595855  0.96576928     0.76800
C2808       C  0.74748717  0.94097736  0.90677323     0.76900
C2809       C  0.80441986  0.43307457  0.93486147     0.76800
C2810       C  0.68742517  0.43771214  0.93712862     0.76700
O2811       O  0.74632217  0.28896605  0.95994086    -0.72400
O2812       O  0.74567510  0.28430496  0.91634697    -0.72600
O2813       O  0.78938680  0.28613323  0.93790497    -0.72500
O2814       O  0.70196561  0.28762648  0.93833973    -0.72500
O2815       O  0.70286605  0.33741648  0.93706342    -0.72400
O2816       O  0.79014870  0.33593138  0.93627695    -0.72500
O2817       O  0.74599337  0.33406340  0.91473586    -0.72400
O2818       O  0.74730348  0.33875201  0.95881652    -0.72600
V2819       V  0.74573612  0.28777547  0.93811403     1.35200
V2820       V  0.74649516  0.33561906  0.93678086     1.35200
C2821       C  0.74753909  0.31443426  0.96688838     0.76800
C2822       C  0.74653967  0.30815954  0.90805087     0.76900
C2823       C  0.80461109  0.31077780  0.93664797     0.76800
C2824       C  0.68747994  0.31281238  0.93770183     0.76700
O2825       O  0.03893065  0.99558962  0.58378373    -0.72400
O2826       O  0.04660536  0.49363569  0.54084536    -0.72600
O2827       O  0.04370729  0.45115661  0.56352273    -0.72500
O2828       O  0.03909301  0.03769834  0.56121343    -0.72500
O2829       O  0.58994036  0.03875595  0.56279453    -0.72400
O2830       O  0.59420021  0.45051745  0.56444601    -0.72500
O2831       O  0.59171296  0.99576965  0.54050779    -0.72400
O2832       O  0.59199981  0.49466261  0.58626329    -0.72600
V2833       V  0.04538244  0.49480917  0.56280774     1.35200
V2834       V  0.59368461  0.49416191  0.56422408     1.35200
C2835       C  0.56611960  0.49638616  0.59295959     0.76800
C2836       C  0.57315001  0.49338413  0.53395485     0.76900
C2837       C  0.06851080  0.43598822  0.56400784     0.76800
C2838       C  0.06371505  0.05320347  0.56189957     0.76700
O2839       O  0.03885063  0.24236474  0.58458052    -0.72400
O2840       O  0.04040489  0.24756125  0.54083106    -0.72600
O2841       O  0.03932011  0.20132752  0.56159755    -0.72500
O2842       O  0.04019227  0.28850496  0.56409202    -0.72500
O2843       O  0.59072002  0.28758207  0.56317527    -0.72400
O2844       O  0.58936061  0.20053613  0.56387741    -0.72500
O2845       O  0.59047742  0.24346949  0.54124809    -0.72400
O2846       O  0.58930704  0.24468959  0.58541895    -0.72600
V2847       V  0.04067474  0.24493054  0.56274321     1.35200
V2848       V  0.58904608  0.24406388  0.56337107     1.35200
C2849       C  0.56399931  0.24319177  0.59265399     0.76800
C2850       C  0.56565652  0.24561645  0.53356791     0.76900
C2851       C  0.06410269  0.18623575  0.56271588     0.76800
C2852       C  0.06538716  0.30309513  0.56423109     0.76700
O2853       O  0.71291972  0.00620340  0.54083790    -0.72400
O2854       O  0.71665307  0.50740242  0.58455253    -0.72600
O2855       O  0.71430389  0.46385048  0.56284137    -0.72500
O2856       O  0.71756570  0.05019114  0.56269109    -0.72500
O2857       O  0.66778015  0.05209533  0.56471744    -0.72400
O2858       O  0.66434063  0.46425193  0.56394421    -0.72500
O2859       O  0.66877816  0.00776579  0.58628688    -0.72400
O2860       O  0.66295552  0.50845293  0.54190892    -0.72600
V2861       V  0.71374039  0.50746709  0.56273369     1.35200
V2862       V  0.66577841  0.50800761  0.56385550     1.35200
C2863       C  0.68724193  0.50759900  0.53385888     0.76800
C2864       C  0.69254754  0.50648117  0.59270685     0.76900
C2865       C  0.68923569  0.44917483  0.56369238     0.76800
C2866       C  0.69330896  0.06600067  0.56401086     0.76700
O2867       O  0.71300223  0.25703925  0.54134851    -0.72400
O2868       O  0.72127754  0.25827057  0.58489366    -0.72600
O2869       O  0.71793432  0.21422791  0.56343171    -0.72500
O2870       O  0.71614795  0.30159356  0.56273543    -0.72500
O2871       O  0.66665997  0.30073874  0.56622923    -0.72400
O2872       O  0.66801772  0.21348141  0.56463939    -0.72500
O2873       O  0.67168084  0.25513809  0.58732905    -0.72400
O2874       O  0.66324566  0.25857900  0.54349840    -0.72600
V2875       V  0.71610964  0.25787445  0.56316769     1.35200
V2876       V  0.66833098  0.25706541  0.56539733     1.35200
C2877       C  0.68683940  0.25766572  0.53492785     0.76800
C2878       C  0.69806974  0.25562612  0.59358609     0.76900
C2879       C  0.69316307  0.19894620  0.56380102     0.76800
C2880       C  0.69108705  0.31608713  0.56426318     0.76700
C2881       C  0.68935265  0.41520437  0.56424275    -0.06700
C2882       C  0.70857675  0.39937307  0.55402200    -0.17900
C2883       C  0.70894762  0.36723266  0.55349265     0.10500
C2884       C  0.69031044  0.35013509  0.56373283    -0.06700
C2885       C  0.67094950  0.36598641  0.57393808    -0.17900
C2886       C  0.67061861  0.39820603  0.57447273     0.10500
S2887       S  0.73244871  0.34959040  0.53889220    -0.32900
S2888       S  0.64678721  0.41614453  0.58885581    -0.32900
H2889       H  0.66735920  0.44029623  0.59203470     0.28500
H2890       H  0.71125111  0.32616207  0.53538910     0.28500
H2891       H  0.72275151  0.41219362  0.54601402     0.19100
H2892       H  0.65664593  0.35317638  0.58189012     0.19100
C2893       C  0.69421434  0.09993872  0.56433762    -0.06700
C2894       C  0.66988815  0.11575257  0.55733346    -0.17900
C2895       C  0.66974448  0.14772455  0.55643529     0.10500
C2896       C  0.69362179  0.16492199  0.56336355    -0.06700
C2897       C  0.71810118  0.14914764  0.57037648    -0.17900
C2898       C  0.71860253  0.11695344  0.57101491     0.10500
S2899       S  0.63973559  0.16481404  0.54514484    -0.32900
S2900       S  0.75009857  0.09920312  0.58117741    -0.32900
H2901       H  0.73175036  0.07671448  0.58834155     0.28500
H2902       H  0.65915643  0.18696769  0.53845132     0.28500
H2903       H  0.65132069  0.10301700  0.55190875     0.19100
H2904       H  0.73657656  0.16199332  0.57579420     0.19100
C2905       C  0.06807414  0.40194741  0.56410320    -0.06700
C2906       C  0.04462817  0.38663719  0.57215602    -0.17900
C2907       C  0.04370888  0.35447886  0.57292643     0.10500
C2908       C  0.06620765  0.33700449  0.56507894    -0.06700
C2909       C  0.59041603  0.35209437  0.55716362    -0.17900
C2910       C  0.59127129  0.38412161  0.55642058     0.10500
S2911       S  0.01436328  0.33732453  0.58479983    -0.32900
S2912       S  0.61984529  0.40092344  0.54412893    -0.32900
H2913       H  0.59887887  0.42239122  0.53819398     0.28500
H2914       H  0.03367608  0.31426010  0.59078008     0.28500
H2915       H  0.02736455  0.39982145  0.57824597     0.19100
H2916       H  0.60751405  0.33904699  0.55087363     0.19100
C2917       C  0.06326906  0.08724290  0.56187838    -0.06700
C2918       C  0.58504576  0.10264952  0.57144587    -0.17900
C2919       C  0.58479297  0.13472330  0.57257318     0.10500
C2920       C  0.06371984  0.15224270  0.56315484    -0.06700
C2921       C  0.04161252  0.13659864  0.55435905    -0.17900
C2922       C  0.04128635  0.10448481  0.55352086     0.10500
S2923       S  0.61063783  0.15204023  0.58633023    -0.32900
S2924       S  0.01343493  0.08713785  0.54084285    -0.32900
H2925       H  0.03422368  0.06546360  0.53488523     0.28500
H2926       H  0.58985900  0.17495586  0.59103686     0.28500
H2927       H  0.60115739  0.08971197  0.57843163     0.19100
H2928       H  0.02503933  0.14953649  0.54764044     0.19100
C2929       C  0.90345223  0.30856600  0.93606347    -0.06700
C2930       C  0.88765304  0.32924806  0.92650781    -0.17900
C2931       C  0.85545091  0.32996428  0.92612323     0.10500
C2932       C  0.83849798  0.31004964  0.93579598    -0.06700
C2933       C  0.85431430  0.28928225  0.94525650    -0.17900
C2934       C  0.88645915  0.28873788  0.94572673     0.10500
S2935       S  0.83751050  0.35551714  0.91245853    -0.32900
S2936       S  0.90428099  0.26381777  0.95969047    -0.32900
H2937       H  0.92702152  0.28515351  0.96406319     0.28500
H2938       H  0.81373597  0.33504706  0.90843346     0.28500
H2939       H  0.90050511  0.34451482  0.91902335     0.19100
H2940       H  0.84152744  0.27409799  0.95280201     0.19100
C2941       C  0.58841334  0.31141722  0.93888896    -0.06700
C2942       C  0.60372737  0.33436639  0.93054725    -0.17900
C2943       C  0.63594065  0.33562759  0.92999203     0.10500
C2944       C  0.65340189  0.31325864  0.93795979    -0.06700
C2945       C  0.63799979  0.29054914  0.94647407    -0.17900
C2946       C  0.60585427  0.28971326  0.94725225     0.10500
S2947       S  0.65399709  0.36454942  0.91813880    -0.32900
S2948       S  0.58862361  0.26136304  0.95968051    -0.32900
H2949       H  0.56526678  0.28097382  0.96504813     0.28500
H2950       H  0.62731692  0.38166160  0.91485229     0.28500
H2951       H  0.59030074  0.35092608  0.92409910     0.19100
H2952       H  0.65114806  0.27370477  0.95290217     0.19100
C2953       C  0.83823341  0.43172182  0.93419051    -0.06700
C2954       C  0.85326700  0.41079805  0.94379794    -0.17900
C2955       C  0.88531592  0.41019896  0.94481706     0.10500
C2956       C  0.90445072  0.93612003  0.93655263    -0.06700
C2957       C  0.88923326  0.95788007  0.92736759    -0.17900
C2958       C  0.85704123  0.95890523  0.92665592     0.10500
S2959       S  0.90140600  0.38634102  0.95951566    -0.32900
S2960       S  0.83978782  0.98632940  0.91372890    -0.32900
H2961       H  0.81573885  0.96682436  0.90898645     0.28500
H2962       H  0.91903807  0.36935808  0.94918816     0.28500
H2963       H  0.83988772  0.39557796  0.95106239     0.19100
H2964       H  0.90248467  0.97381500  0.92045706     0.19100
C2965       C  0.65339262  0.43888445  0.93840147    -0.06700
C2966       C  0.63831610  0.41540578  0.94657301    -0.17900
C2967       C  0.60617383  0.41463972  0.94779717     0.10500
C2968       C  0.58954965  0.93587160  0.93809750    -0.06700
C2969       C  0.60454579  0.95967915  0.93026441    -0.17900
C2970       C  0.63659456  0.96176215  0.92999496     0.10500
S2971       S  0.58947590  0.38566882  0.96006035    -0.32900
S2972       S  0.65284783  0.99376119  0.91977367    -0.32900
H2973       H  0.66541146  0.00684155  0.93317287     0.28500
H2974       H  0.56558186  0.40450861  0.96551272     0.28500
H2975       H  0.65170750  0.39776091  0.95228312     0.19100
H2976       H  0.59113729  0.97688276  0.92422024     0.19100
C2977       C  0.90432787  0.28386100  0.18940739    -0.06700
C2978       C  0.88925023  0.31029390  0.19479266    -0.17900
C2979       C  0.85714086  0.31183216  0.19581671     0.10500
C2980       C  0.83899027  0.28632722  0.19125351    -0.06700
C2981       C  0.85406676  0.25982410  0.18593483    -0.17900
C2982       C  0.88616054  0.25846428  0.18468166     0.10500
S2983       S  0.84128108  0.34698730  0.20330487    -0.32900
S2984       S  0.90190488  0.22424023  0.17610006    -0.32900
H2985       H  0.92000287  0.24058335  0.16544648     0.28500
H2986       H  0.82127018  0.33203090  0.21355983     0.28500
H2987       H  0.90260195  0.33002369  0.19846923     0.19100
H2988       H  0.84069331  0.24022732  0.18210196     0.19100
C2989       C  0.58909285  0.28449844  0.18641993    -0.06700
C2990       C  0.60424022  0.31163745  0.18199853    -0.17900
C2991       C  0.63643147  0.31367909  0.18207227     0.10500
C2992       C  0.65391841  0.28776519  0.18647180    -0.06700
C2993       C  0.63875987  0.26064865  0.19083419    -0.17900
C2994       C  0.60671529  0.25894711  0.19121825     0.10500
S2995       S  0.65456011  0.34902862  0.17589436    -0.32900
S2996       S  0.59011829  0.22423150  0.19895193    -0.32900
H2997       H  0.56892456  0.23969160  0.20840870     0.28500
H2998       H  0.62749139  0.36633552  0.17394940     0.28500
H2999       H  0.59079362  0.33120018  0.17835429     0.19100
H3000       H  0.65197140  0.24096342  0.19458604     0.19100
C3001       C  0.83571779  0.47321987  0.19007047    -0.06700
C3002       C  0.85230405  0.98477384  0.17846306    -0.17900
C3003       C  0.88442451  0.98537067  0.17756092     0.10500
C3004       C  0.90198321  0.96585292  0.18715273    -0.06700
C3005       C  0.88485089  0.45389150  0.19942787    -0.17900
C3006       C  0.85262623  0.45367327  0.19995161     0.10500
S3007       S  0.90138189  0.01043143  0.16338278    -0.32900
S3008       S  0.83463887  0.42935011  0.21412265    -0.32900
H3009       H  0.81154391  0.45062796  0.21801003     0.28500
H3010       H  0.92434798  0.98946353  0.15892694     0.28500
H3011       H  0.83912701  0.99969854  0.17095362     0.19100
H3012       H  0.89758145  0.43895143  0.20709945     0.19100
C3013       C  0.58695634  0.96974347  0.18832815    -0.06700
C3014       C  0.60131458  0.44886221  0.19427754    -0.17900
C3015       C  0.63343155  0.44779414  0.19471666     0.10500
C3016       C  0.65073041  0.47100583  0.18726019    -0.06700
C3017       C  0.63678646  0.99235144  0.18252047    -0.17900
C3018       C  0.60459157  0.99422776  0.18220737     0.10500
S3019       S  0.65055630  0.41727673  0.20583254    -0.32900
S3020       S  0.58690886  0.02733395  0.17325247    -0.32900
H3021       H  0.61381544  0.04509061  0.17169793     0.28500
H3022       H  0.67168444  0.43670519  0.21332629     0.28500
H3023       H  0.58838740  0.43115935  0.20022398     0.19100
H3024       H  0.65027244  0.01060377  0.17739988     0.19100
C3025       C  0.74902431  0.31525920  0.98404711    -0.06700
C3026       C  0.73175468  0.33719126  0.99214781    -0.17900
C3027       C  0.72996386  0.33667555  0.00830756     0.10500
C3028       C  0.74652183  0.31437137  0.01682958    -0.06700
C3029       C  0.76401069  0.29268105  0.00869924    -0.17900
C3030       C  0.76575546  0.29310176  0.99258879     0.10500
S3031       S  0.70409705  0.36345602  0.01721343    -0.32900
S3032       S  0.79105109  0.26556996  0.98368397    -0.32900
H3033       H  0.80171291  0.28606286  0.97237238     0.28500
H3034       H  0.69393738  0.34295883  0.02864287     0.28500
H3035       H  0.71849486  0.35407444  0.98582734     0.19100
H3036       H  0.77718101  0.27566732  0.01497879     0.19100
C3037       C  0.75385623  0.30573839  0.11010143    -0.06700
C3038       C  0.73915761  0.32841891  0.11894937    -0.17900
C3039       C  0.73819964  0.32674917  0.13511104     0.10500
C3040       C  0.75151620  0.30130672  0.14288425    -0.06700
C3041       C  0.76649220  0.27889000  0.13398893    -0.17900
C3042       C  0.76842308  0.28117817  0.11792593     0.10500
S3043       S  0.71799674  0.35688813  0.14499421    -0.32900
S3044       S  0.79138867  0.25286609  0.10819018    -0.32900
H3045       H  0.80488257  0.27450490  0.09824544     0.28500
H3046       H  0.74449230  0.36672645  0.15291702     0.28500
H3047       H  0.72784856  0.34744136  0.11322024     0.19100
H3048       H  0.77751802  0.25960813  0.13963484     0.19100
C3049       C  0.74197111  0.93446667  0.01567197    -0.06700
C3050       C  0.76202521  0.41442323  0.00796590    -0.17900
C3051       C  0.76460500  0.41363305  0.99181553     0.10500
C3052       C  0.74669008  0.93492744  0.98294782    -0.06700
C3053       C  0.72704024  0.95536599  0.99066508    -0.17900
C3054       C  0.72417153  0.95507214  0.00674042     0.10500
S3055       S  0.79275301  0.38798907  0.98365698    -0.32900
S3056       S  0.69624331  0.98072025  0.01509396    -0.32900
H3057       H  0.68682317  0.96021187  0.02667968     0.28500
H3058       H  0.80127528  0.40776310  0.97160766     0.28500
H3059       H  0.77638939  0.39933309  0.01481274     0.19100
H3060       H  0.71308068  0.97123269  0.98406975     0.19100
C3061       C  0.74205176  0.95191845  0.14173307    -0.06700
C3062       C  0.75898547  0.43350360  0.13470403    -0.17900
C3063       C  0.76046158  0.42907804  0.11865113     0.10500
C3064       C  0.74316850  0.94462143  0.10902456    -0.06700
C3065       C  0.72406994  0.96656312  0.11603891    -0.17900
C3066       C  0.72297847  0.97010503  0.13210933     0.10500
S3067       S  0.78242109  0.39677329  0.11180217    -0.32900
S3068       S  0.69553113  0.99725267  0.13963363    -0.32900
H3069       H  0.68723151  0.97916858  0.15238798     0.28500
H3070       H  0.79570300  0.41271743  0.09939622     0.28500
H3071       H  0.77022551  0.41703381  0.14218241     0.19100
H3072       H  0.70924108  0.98071582  0.10892006     0.19100
C3073       C  0.90713038  0.30781608  0.05967979    -0.06700
C3074       C  0.89136557  0.28230279  0.06556649    -0.17900
C3075       C  0.85918693  0.28150123  0.06615025     0.10500
C3076       C  0.84215837  0.30753250  0.06125250    -0.06700
C3077       C  0.85798534  0.33279584  0.05501447    -0.17900
C3078       C  0.89006811  0.33266847  0.05360476     0.10500
S3079       S  0.84084848  0.24718196  0.07353911    -0.32900
S3080       S  0.90743793  0.36368992  0.04291244    -0.32900
H3081       H  0.92985084  0.34518861  0.03582333     0.28500
H3082       H  0.86770995  0.23056678  0.07705837     0.28500
H3083       H  0.90439455  0.26303631  0.06993257     0.19100
H3084       H  0.84521994  0.35227414  0.05063223     0.19100
C3085       C  0.59213024  0.30774981  0.06438926    -0.06700
C3086       C  0.60708859  0.33214980  0.07194653    -0.17900
C3087       C  0.63925648  0.33340456  0.07303535     0.10500
C3088       C  0.65713546  0.31083987  0.06553753    -0.06700
C3089       C  0.64218330  0.28647686  0.05806516    -0.17900
C3090       C  0.61009023  0.28428642  0.05761702     0.10500
S3091       S  0.65583351  0.36318303  0.08485158    -0.32900
S3092       S  0.59291404  0.25185380  0.04784349    -0.32900
H3093       H  0.62022143  0.23557221  0.04486842     0.28500
H3094       H  0.67903489  0.34438899  0.09111355     0.28500
H3095       H  0.59357161  0.34987162  0.07753504     0.19100
H3096       H  0.65584846  0.26910186  0.05233271     0.19100
C3097       C  0.49482073  0.31081275  0.98328827    -0.06700
C3098       C  0.51111877  0.28729144  0.99077427    -0.17900
C3099       C  0.51448318  0.28671731  0.00679111     0.10500
C3100       C  0.50109040  0.31008912  0.01592600    -0.06700
C3101       C  0.98546015  0.33326261  0.00819902    -0.17900
C3102       C  0.98152695  0.33339586  0.99217440     0.10500
S3103       S  0.53751718  0.25625141  0.01471544    -0.32900
S3104       S  0.95639937  0.36201697  0.98431810    -0.32900
H3105       H  0.94258091  0.34163994  0.97382769     0.28500
H3106       H  0.55295706  0.27609547  0.02486295     0.28500
H3107       H  0.52208032  0.26943538  0.98405872     0.19100
H3108       H  0.97499892  0.35141247  0.01492890     0.19100
C3109       C  0.49307312  0.29741310  0.14158836    -0.06700
C3110       C  0.97700300  0.27734359  0.13221723    -0.17900
C3111       C  0.97618797  0.28010973  0.11615158     0.10500
C3112       C  0.49319889  0.30254060  0.10893390    -0.06700
C3113       C  0.50884480  0.32403956  0.11811802    -0.17900
C3114       C  0.50857573  0.32209538  0.13429649     0.10500
S3115       S  0.95130374  0.25406539  0.10584419    -0.32900
S3116       S  0.52983736  0.35022171  0.14531926    -0.32900
H3117       H  0.53575374  0.37061606  0.13312156     0.28500
H3118       H  0.94137465  0.27606536  0.09506581     0.28500
H3119       H  0.96379789  0.25922955  0.13764914     0.19100
H3120       H  0.52195237  0.34203696  0.11256461     0.19100
C3121       C  0.90098525  0.43903559  0.06237615    -0.09900
C3122       C  0.88434707  0.95452971  0.05231172    -0.17900
C3123       C  0.85218482  0.95533402  0.05148416     0.10500
C3124       C  0.83609827  0.43988460  0.06060337    -0.06700
C3125       C  0.85117320  0.41962853  0.07060570    -0.17900
C3126       C  0.88323862  0.41888504  0.07158157     0.10500
S3127       S  0.83498045  0.98049177  0.03742658    -0.32900
S3128       S  0.89953997  0.39394442  0.08592577    -0.32900
H3129       H  0.91671385  0.37643826  0.07549490     0.28500
H3130       H  0.81114365  0.96006857  0.03340999     0.28500
H3131       H  0.89757671  0.96981349  0.04501764     0.19100
H3132       H  0.83781158  0.40473568  0.07805397     0.19100
C3133       C  0.58608051  0.44424674  0.06460895    -0.06700
C3134       C  0.60128480  0.41992229  0.05728434    -0.17900
C3135       C  0.63329005  0.41952044  0.05588646     0.10500
C3136       C  0.65107385  0.44326927  0.06255169    -0.06700
C3137       C  0.63433328  0.96474607  0.06871584    -0.17900
C3138       C  0.60216467  0.96530724  0.06967201     0.10500
S3139       S  0.64961182  0.38918949  0.04447929    -0.32900
S3140       S  0.58491871  0.99690079  0.07989362    -0.32900
H3141       H  0.56295104  0.97862311  0.08749415     0.28500
H3142       H  0.67136014  0.40834698  0.03729423     0.28500
H3143       H  0.58804970  0.40159255  0.05203629     0.19100
H3144       H  0.64743899  0.98322136  0.07394253     0.19100
C3145       C  0.49208844  0.43191864  0.98458125    -0.06700
C3146       C  0.51296258  0.91191969  0.99193643    -0.17900
C3147       C  0.51361510  0.91227462  0.00813837     0.10500
C3148       C  0.99410078  0.93231135  0.01627725    -0.06700
C3149       C  0.97403883  0.45250343  0.00867989    -0.17900
C3150       C  0.97239404  0.45133844  0.99257242     0.10500
S3151       S  0.54081601  0.88730467  0.01757247    -0.32900
S3152       S  0.94335221  0.47454464  0.98335818    -0.32900
H3153       H  0.93618068  0.45279777  0.97193245     0.28500
H3154       H  0.54905822  0.90865580  0.02898633     0.28500
H3155       H  0.52788872  0.89618494  0.98582918     0.19100
H3156       H  0.95867624  0.46779570  0.01480835     0.19100
C3157       C  0.49054622  0.46354472  0.14284124    -0.06700
C3158       C  0.98466574  0.43410161  0.13645586    -0.17900
C3159       C  0.98409975  0.42854234  0.12054521     0.10500
C3160       C  0.99350027  0.94546233  0.10942239    -0.06700
C3161       C  0.50824178  0.97086003  0.11584641    -0.17900
C3162       C  0.51012152  0.97552647  0.13183046     0.10500
S3163       S  0.97299214  0.39058692  0.11461172    -0.32900
S3164       S  0.53176615  0.00804751  0.13898599    -0.32900
H3165       H  0.54028839  0.02033579  0.12465375     0.28500
H3166       H  0.95235842  0.40146517  0.10350247     0.28500
H3167       H  0.97988179  0.41512536  0.14416377     0.19100
H3168       H  0.51884240  0.98731798  0.10816459     0.19100
C3169       C  0.68265758  0.24935395  0.48518818    -0.06700
C3170       C  0.66195781  0.26896061  0.49284638    -0.17900
C3171       C  0.66283074  0.27263456  0.50895959     0.10500
C3172       C  0.68453699  0.25592025  0.51781495    -0.06700
C3173       C  0.70475237  0.23598154  0.51013114    -0.17900
C3174       C  0.70373327  0.23216789  0.49413545     0.10500
S3175       S  0.63641836  0.29975591  0.51738301    -0.32900
S3176       S  0.72899832  0.20375613  0.48592566    -0.32900
H3177       H  0.70764941  0.19378145  0.47482400     0.28500
H3178       H  0.65671598  0.31014037  0.52886266     0.28500
H3179       H  0.64570589  0.28237434  0.48619050     0.19100
H3180       H  0.72105040  0.22248206  0.51672086     0.19100
C3181       C  0.69189821  0.40669367  0.43779025    -0.06700
C3182       C  0.66813002  0.39171890  0.44576658    -0.17900
C3183       C  0.66689770  0.35969981  0.44681257     0.10500
C3184       C  0.68910904  0.34164505  0.43915138    -0.06700
C3185       C  0.71342140  0.35651707  0.43154805    -0.17900
C3186       C  0.71534961  0.38874296  0.43094868     0.10500
S3187       S  0.63858008  0.34344082  0.45949110    -0.32900
S3188       S  0.74761350  0.40619278  0.42121772    -0.32900
H3189       H  0.76045573  0.37903959  0.41526948     0.28500
H3190       H  0.62261859  0.32998400  0.44731766     0.28500
H3191       H  0.65068671  0.40512358  0.45161100     0.19100
H3192       H  0.73088359  0.34275792  0.42596952     0.19100
C3193       C  0.68512899  0.09133015  0.43944263    -0.06700
C3194       C  0.66397790  0.10672748  0.42994483    -0.17900
C3195       C  0.66279446  0.13897134  0.42942632     0.10500
C3196       C  0.68346708  0.15633601  0.43850538    -0.06700
C3197       C  0.70439766  0.14087154  0.44807799    -0.17900
C3198       C  0.70492019  0.10878545  0.44894223     0.10500
S3199       S  0.63643805  0.15741661  0.41628563    -0.32900
S3200       S  0.73016488  0.09165819  0.46300347    -0.32900
H3201       H  0.70921404  0.06855703  0.46738128     0.28500
H3202       H  0.61929396  0.13102554  0.41250231     0.28500
H3203       H  0.64882660  0.09340045  0.42262148     0.19100
H3204       H  0.71999888  0.15393300  0.45529198     0.19100
C3205       C  0.68605209  0.50592691  0.51672756    -0.06700
C3206       C  0.70568236  0.48507419  0.50927806    -0.17900
C3207       C  0.70477506  0.48092939  0.49328500     0.10500
C3208       C  0.68444836  0.49867972  0.48417205    -0.06700
C3209       C  0.66484262  0.02005097  0.49175334    -0.17900
C3210       C  0.66580766  0.02414408  0.50782870     0.10500
S3211       S  0.72919239  0.45151635  0.48529244    -0.32900
S3212       S  0.64221860  0.05408811  0.51591926    -0.32900
H3213       H  0.66335244  0.06255289  0.52743440     0.28500
H3214       H  0.70832078  0.44256501  0.47373966     0.28500
H3215       H  0.72126971  0.47110042  0.51604585     0.19100
H3216       H  0.65030801  0.03494098  0.48489995     0.19100
C3217       C  0.56202349  0.25274713  0.48339552    -0.06700
C3218       C  0.08689992  0.24046168  0.49038781    -0.17900
C3219       C  0.08829245  0.23645112  0.50643718     0.10500
C3220       C  0.56518005  0.24720011  0.51624743    -0.06700
C3221       C  0.54049378  0.26233039  0.50900008    -0.17900
C3222       C  0.53830741  0.26477847  0.49285639     0.10500
S3223       S  0.11866372  0.21262514  0.51369324    -0.32900
S3224       S  0.50504070  0.28362389  0.48470482    -0.32900
H3225       H  0.49116511  0.29255766  0.49859363     0.28500
H3226       H  0.09884258  0.19628253  0.52352128     0.28500
H3227       H  0.10506860  0.23080107  0.48336503     0.19100
H3228       H  0.52260436  0.27223946  0.51607724     0.19100
C3229       C  0.06167457  0.41209157  0.43503338    -0.06700
C3230       C  0.03930873  0.39689134  0.44383546    -0.17900
C3231       C  0.03767667  0.36482366  0.44429885     0.10500
C3232       C  0.05841378  0.34705341  0.43549670    -0.06700
C3233       C  0.58283258  0.36104723  0.42696850    -0.17900
C3234       C  0.58419616  0.39325589  0.42642527     0.10500
S3235       S  0.01010939  0.34811842  0.45725593    -0.32900
S3236       S  0.61158397  0.41037056  0.41341645    -0.32900
H3237       H  0.59173510  0.43398153  0.40851969     0.28500
H3238       H  0.03139838  0.32684855  0.46317395     0.28500
H3239       H  0.02366524  0.41009631  0.45092814     0.19100
H3240       H  0.59867345  0.34781876  0.41999241     0.19100
C3241       C  0.05815213  0.09702415  0.43765782    -0.06700
C3242       C  0.03632833  0.11283502  0.42877458    -0.17900
C3243       C  0.03652760  0.14491205  0.42782905     0.10500
C3244       C  0.05817448  0.16192900  0.43649299    -0.06700
C3245       C  0.57998057  0.14466060  0.44506453    -0.17900
C3246       C  0.57993687  0.11255233  0.44587609     0.10500
S3247       S  0.00993447  0.16256683  0.41456989    -0.32900
S3248       S  0.60794749  0.09471240  0.45833315    -0.32900
H3249       H  0.58799509  0.07157805  0.46368169     0.28500
H3250       H  0.03090221  0.18491333  0.40933668     0.28500
H3251       H  0.01967411  0.10008106  0.42204353     0.19100
H3252       H  0.59715864  0.15738598  0.45149652     0.19100
C3253       C  0.57152551  0.50170171  0.48400696    -0.06700
C3254       C  0.58753290  0.98624667  0.48983833    -0.17900
C3255       C  0.58962952  0.98299783  0.50585203     0.10500
C3256       C  0.57426289  0.49554630  0.51671806    -0.06700
C3257       C  0.05101706  0.51455342  0.50942261    -0.17900
C3258       C  0.05015834  0.51862928  0.49341379     0.10500
S3259       S  0.61960487  0.95800826  0.51262588    -0.32900
S3260       S  0.02295781  0.54615377  0.48596069    -0.32900
H3261       H  0.02926130  0.05541853  0.47349571     0.28500
H3262       H  0.63027334  0.97773080  0.52403455     0.28500
H3263       H  0.60461656  0.97510590  0.48267715     0.19100
H3264       H  0.03441208  0.52680507  0.51637008     0.19100
C3265       C  0.73561897  0.27290574  0.23477377    -0.06700
C3266       C  0.70794695  0.25901841  0.23946553    -0.17900
C3267       C  0.70128979  0.25381574  0.25509245     0.10500
C3268       C  0.72280999  0.26258669  0.26659123    -0.06700
C3269       C  0.75050524  0.27653816  0.26177444    -0.17900
C3270       C  0.75707969  0.28172060  0.24615538     0.10500
S3271       S  0.66520005  0.23531224  0.25942264    -0.32900
S3272       S  0.79356390  0.29916744  0.24149931    -0.32900
H3273       H  0.79776228  0.28349541  0.22753261     0.28500
H3274       H  0.67812077  0.21462647  0.27005596     0.28500
H3275       H  0.69122928  0.25224214  0.23084447     0.19100
H3276       H  0.76730259  0.28366203  0.27027458     0.19100
C3277       C  0.69083652  0.24995222  0.39178431    -0.06700
C3278       C  0.71383357  0.23222785  0.38467192    -0.17900
C3279       C  0.71691147  0.23097812  0.36859328     0.10500
C3280       C  0.69701486  0.24835388  0.35904091    -0.06700
C3281       C  0.67366457  0.26574478  0.36610793    -0.17900
C3282       C  0.67074391  0.26719562  0.38224083     0.10500
S3283       S  0.74592142  0.20558954  0.36099046    -0.32900
S3284       S  0.64226516  0.29311812  0.38989466    -0.32900
H3285       H  0.66083273  0.30366080  0.40207055     0.28500
H3286       H  0.72822254  0.19587738  0.34832744     0.28500
H3287       H  0.72923499  0.21859733  0.39170852     0.19100
H3288       H  0.65841222  0.27946890  0.35903696     0.19100
C3289       C  0.70903363  0.34643614  0.31378334    -0.06700
C3290       C  0.73221909  0.36190545  0.32199610    -0.17900
C3291       C  0.73333751  0.39402596  0.32257120     0.10500
C3292       C  0.71100792  0.41142067  0.31455741    -0.06700
C3293       C  0.68774055  0.39593593  0.30642654    -0.17900
C3294       C  0.68687998  0.36389761  0.30565083     0.10500
S3295       S  0.76291615  0.41119007  0.33431977    -0.32900
S3296       S  0.65830053  0.34708425  0.29315764    -0.32900
H3297       H  0.67880951  0.32591301  0.28649738     0.28500
H3298       H  0.74350606  0.43382479  0.34057853     0.28500
H3299       H  0.74929924  0.34885873  0.32833321     0.19100
H3300       H  0.67068895  0.40893697  0.30004462     0.19100
C3301       C  0.70848964  0.09582825  0.30975379    -0.06700
C3302       C  0.73618083  0.11179240  0.30727402    -0.17900
C3303       C  0.73732247  0.14393642  0.30700016     0.10500
C3304       C  0.71023439  0.16121231  0.30974502    -0.06700
C3305       C  0.68244611  0.14528860  0.31209067    -0.17900
C3306       C  0.68114459  0.11301920  0.31215658     0.10500
S3307       S  0.77401184  0.16111336  0.30252455    -0.32900
S3308       S  0.64457854  0.09467216  0.31618774    -0.32900
H3309       H  0.62638462  0.12137381  0.31654903     0.28500
H3310       H  0.76162544  0.18185871  0.29175164     0.28500
H3311       H  0.75723766  0.09909985  0.30522709     0.19100
H3312       H  0.66165136  0.15824908  0.31427879     0.19100
C3313       C  0.72502159  0.99123966  0.26584344    -0.06700
C3314       C  0.74890491  0.00700299  0.25822868    -0.17900
C3315       C  0.75587079  0.00140911  0.24263482     0.10500
C3316       C  0.73863716  0.97951089  0.23416648    -0.06700
C3317       C  0.71783345  0.46399583  0.24212132    -0.17900
C3318       C  0.71199224  0.46804958  0.25788605     0.10500
S3319       S  0.78781335  0.02211359  0.23439981    -0.32900
S3320       S  0.68944888  0.43902922  0.26744368    -0.32900
H3321       H  0.70802054  0.43848027  0.28067729     0.28500
H3322       H  0.79742559  0.99815048  0.22468778     0.28500
H3323       H  0.76240905  0.02378989  0.26450446     0.19100
H3324       H  0.70775502  0.44445898  0.23631531     0.19100
C3325       C  0.69899836  0.00639985  0.35820405    -0.06700
C3326       C  0.72434982  0.49509055  0.36703770    -0.17900
C3327       C  0.72221354  0.49225761  0.38306126     0.10500
C3328       C  0.69530617  0.50201522  0.39089236    -0.06700
C3329       C  0.66998789  0.01182089  0.38221390    -0.17900
C3330       C  0.67173618  0.01488772  0.36608801     0.10500
S3331       S  0.75423574  0.47426048  0.39262757    -0.32900
S3332       S  0.63906459  0.03161834  0.35646438    -0.32900
H3333       H  0.65693844  0.05054268  0.34684759     0.28500
H3334       H  0.73508027  0.45611270  0.40190472     0.28500
H3335       H  0.74494518  0.48671479  0.36142152     0.19100
H3336       H  0.64886470  0.01834968  0.38795989     0.19100
C3337       C  0.52205343  0.25735874  0.26485967    -0.06700
C3338       C  0.53959979  0.27891763  0.25662838    -0.17900
C3339       C  0.53380453  0.28507074  0.24102883     0.10500
C3340       C  0.50971744  0.26948830  0.23323630    -0.06700
C3341       C  0.99525630  0.24727662  0.24097154    -0.17900
C3342       C  0.00134206  0.24112775  0.25655053     0.10500
S3343       S  0.55866883  0.31237498  0.23162246    -0.32900
S3344       S  0.98089132  0.20962731  0.26533173    -0.32900
H3345       H  0.00527707  0.20047824  0.27496080     0.28500
H3346       H  0.56166752  0.29495031  0.21814513     0.28500
H3347       H  0.55779106  0.29143847  0.26245807     0.19100
H3348       H  0.97837423  0.23339116  0.23495288     0.19100
C3349       C  0.54794655  0.25146156  0.35714817    -0.06700
C3350       C  0.57371790  0.23764766  0.36411598    -0.17900
C3351       C  0.57703643  0.23654450  0.38023054     0.10500
C3352       C  0.55472985  0.25059164  0.38983875    -0.06700
C3353       C  0.02860232  0.26632019  0.38258882    -0.17900
C3354       C  0.02547190  0.26742768  0.36655713     0.10500
S3355       S  0.60893497  0.21480837  0.38773507    -0.32900
S3356       S  0.99372869  0.28959338  0.35909506    -0.32900
H3357       H  0.01121303  0.30369401  0.34743977     0.28500
H3358       H  0.59149105  0.20064051  0.39937262     0.28500
H3359       H  0.59080932  0.22647671  0.35698756     0.19100
H3360       H  0.01155337  0.27787923  0.38959935     0.19100
C3361       C  0.03629374  0.34467641  0.31294877    -0.06700
C3362       C  0.01075419  0.36027634  0.30687952    -0.17900
C3363       C  0.00971967  0.39233581  0.30645626     0.10500
C3364       C  0.03440537  0.40953005  0.31266304    -0.06700
C3365       C  0.56002230  0.39288752  0.31747200    -0.17900
C3366       C  0.56144067  0.36080523  0.31781094     0.10500
S3367       S  0.97712672  0.40966672  0.29695941    -0.32900
S3368       S  0.59633886  0.34388169  0.32519969    -0.32900
H3369       H  0.58099752  0.32170771  0.33415404     0.28500
H3370       H  0.99449796  0.43233410  0.28936377     0.28500
H3371       H  0.99186910  0.34739357  0.30189576     0.19100
H3372       H  0.57987230  0.40594612  0.32129166     0.19100
C3373       C  0.03206935  0.09453853  0.31099013    -0.06700
C3374       C  0.05538315  0.10916877  0.30247595    -0.17900
C3375       C  0.05739386  0.14131021  0.30162674     0.10500
C3376       C  0.03572721  0.15965697  0.30958441    -0.06700
C3377       C  0.51332657  0.14328144  0.31845250    -0.17900
C3378       C  0.51200402  0.11125300  0.31951835     0.10500
S3379       S  0.08729732  0.15719587  0.28966858    -0.32900
S3380       S  0.48427974  0.09534585  0.33272393    -0.32900
H3381       H  0.50484009  0.07357262  0.33886962     0.28500
H3382       H  0.06811584  0.17940982  0.28284684     0.28500
H3383       H  0.07176256  0.09546898  0.29606809     0.19100
H3384       H  0.49700068  0.15674438  0.32502021     0.19100
C3385       C  0.51591373  0.49309177  0.26713169    -0.06700
C3386       C  0.98830983  0.01030497  0.25808066    -0.17900
C3387       C  0.98215761  0.00559102  0.24233202     0.10500
C3388       C  0.50171358  0.48481579  0.23540004    -0.06700
C3389       C  0.52391850  0.46648156  0.24274656    -0.17900
C3390       C  0.53110815  0.47029510  0.25836841     0.10500
S3391       S  0.95360860  0.02980005  0.23340975    -0.32900
S3392       S  0.55925539  0.44459811  0.26652685    -0.32900
H3393       H  0.54290614  0.43974360  0.28023333     0.28500
H3394       H  0.94182215  0.00681599  0.22366357     0.28500
H3395       H  0.97656826  0.02864479  0.26410480     0.19100
H3396       H  0.53610233  0.44915833  0.23620326     0.19100
C3397       C  0.55782964  0.50695984  0.39108950    -0.06700
C3398       C  0.57922515  0.49123868  0.38187070    -0.17900
C3399       C  0.57519809  0.48869335  0.36586150     0.10500
C3400       C  0.54968582  0.50303185  0.35863173    -0.06700
C3401       C  0.02478087  0.02226870  0.36653513    -0.17900
C3402       C  0.02883435  0.02437931  0.38247781     0.10500
S3403       S  0.60213707  0.46490230  0.35556574    -0.32900
S3404       S  0.00385364  0.05031769  0.39269674    -0.32900
H3405       H  0.02698196  0.06060319  0.40278358     0.28500
H3406       H  0.57974829  0.45117994  0.34608226     0.28500
H3407       H  0.59846335  0.47957903  0.38724839     0.19100
H3408       H  0.00653139  0.03543798  0.36118673     0.19100
C3409       C  0.75980891  0.29709195  0.85889769    -0.06700
C3410       C  0.74179500  0.32150641  0.86451145    -0.17900
C3411       C  0.73640771  0.32541089  0.88031905     0.10500
C3412       C  0.75001021  0.30510995  0.89104092    -0.06700
C3413       C  0.76840759  0.28102521  0.88544276    -0.17900
C3414       C  0.77342224  0.27673287  0.86961761     0.10500
S3415       S  0.70978936  0.35492228  0.88595578    -0.32900
S3416       S  0.79839840  0.24593765  0.86342316    -0.32900
H3417       H  0.80227909  0.23198006  0.87788171     0.28500
H3418       H  0.69550278  0.33632298  0.89705937     0.28500
H3419       H  0.73056775  0.33688818  0.85647523     0.19100
H3420       H  0.77934111  0.26569091  0.89358271     0.19100
C3421       C  0.75492306  0.94702971  0.85687308    -0.06700
C3422       C  0.74205670  0.97112401  0.86545909    -0.17900
C3423       C  0.73851785  0.96931790  0.88141749     0.10500
C3424       C  0.74858566  0.94292621  0.88954343    -0.06700
C3425       C  0.76061176  0.41526097  0.88084524    -0.17900
C3426       C  0.76458717  0.41754833  0.86477346     0.10500
S3427       S  0.71929409  0.00107528  0.89048296    -0.32900
S3428       S  0.78571452  0.38739558  0.85533941    -0.32900
H3429       H  0.80151004  0.40712337  0.84523921     0.28500
H3430       H  0.70073705  0.98158574  0.89937476     0.28500
H3431       H  0.73374232  0.99148866  0.85961850     0.19100
H3432       H  0.77003324  0.39555683  0.88683001     0.19100
C3433       C  0.91660331  0.28645589  0.80961375    -0.06700
C3434       C  0.90088885  0.26043787  0.80417185    -0.17900
C3435       C  0.86870162  0.25954774  0.80354087     0.10500
C3436       C  0.85143344  0.28479387  0.80904086    -0.06700
C3437       C  0.86716249  0.31123767  0.81397626    -0.17900
C3438       C  0.89935930  0.31229945  0.81443770     0.10500
S3439       S  0.85130355  0.22619086  0.79483667    -0.32900
S3440       S  0.91670455  0.34661688  0.82221946    -0.32900
H3441       H  0.93799485  0.33069995  0.83146380     0.28500
H3442       H  0.82830536  0.24287552  0.78705587     0.28500
H3443       H  0.91380603  0.24085295  0.80002642     0.19100
H3444       H  0.85429966  0.33084943  0.81813027     0.19100
C3445       C  0.66659159  0.28177449  0.81526435    -0.06700
C3446       C  0.65113125  0.30328306  0.80607215    -0.17900
C3447       C  0.61914915  0.30336683  0.80490211     0.10500
C3448       C  0.60167281  0.28203226  0.81350868    -0.06700
C3449       C  0.61701783  0.26069840  0.82290300    -0.17900
C3450       C  0.64929726  0.26038495  0.82394821     0.10500
S3451       S  0.60243008  0.33006446  0.79142456    -0.32900
S3452       S  0.66777279  0.23371363  0.83695669    -0.32900
H3453       H  0.64077830  0.22009559  0.84274303     0.28500
H3454       H  0.58153097  0.30856519  0.78533170     0.28500
H3455       H  0.66413898  0.31952835  0.79920993     0.19100
H3456       H  0.60360760  0.24459719  0.82962339     0.19100
C3457       C  0.50632440  0.29724096  0.85772283    -0.06700
C3458       C  0.98814917  0.32264269  0.86379887    -0.17900
C3459       C  0.98491522  0.32622008  0.87981578     0.10500
C3460       C  0.50077862  0.30504603  0.89015453    -0.06700
C3461       C  0.51878310  0.28133967  0.88392220    -0.17900
C3462       C  0.52217910  0.27759214  0.86801473     0.10500
S3463       S  0.95939765  0.35596195  0.88651249    -0.32900
S3464       S  0.54834444  0.24807861  0.86165827    -0.32900
H3465       H  0.56065453  0.26559853  0.84953014     0.28500
H3466       H  0.94690510  0.33854963  0.89861832     0.28500
H3467       H  0.97550078  0.33783005  0.85618636     0.19100
H3468       H  0.53101674  0.26589599  0.89155521     0.19100
C3469       C  0.84549246  0.45849586  0.80853673    -0.06700
C3470       C  0.86278549  0.98508628  0.81496371    -0.17900
C3471       C  0.89489765  0.98588742  0.81599306     0.10500
C3472       C  0.91246984  0.96124926  0.81001596    -0.06700
C3473       C  0.89529152  0.43479076  0.80359886    -0.17900
C3474       C  0.86317456  0.43387098  0.80252681     0.10500
S3475       S  0.91152965  0.01810479  0.82603443    -0.32900
S3476       S  0.84688824  0.40046119  0.79332154    -0.32900
H3477       H  0.82456704  0.41682411  0.78509067     0.28500
H3478       H  0.93089350  0.99974151  0.83521460     0.28500
H3479       H  0.84981943  0.00409642  0.81974094     0.19100
H3480       H  0.90841594  0.41594140  0.79876783     0.19100
C3481       C  0.59734208  0.95894954  0.81171281    -0.06700
C3482       C  0.61180054  0.47525243  0.82360779    -0.17900
C3483       C  0.64394315  0.47528666  0.82416447     0.10500
C3484       C  0.66067637  0.45717605  0.81361158    -0.06700
C3485       C  0.64644592  0.94060888  0.80217152    -0.17900
C3486       C  0.61433866  0.94038049  0.80146787     0.10500
S3487       S  0.66204463  0.49757709  0.83911175    -0.32900
S3488       S  0.59671488  0.91763756  0.78652666    -0.32900
H3489       H  0.57456654  0.93988612  0.78263077     0.28500
H3490       H  0.68467098  0.47538561  0.84234067     0.28500
H3491       H  0.59911551  0.48903436  0.83180037     0.19100
H3492       H  0.65928000  0.92647011  0.79419629     0.19100
C3493       C  0.49716554  0.43840883  0.89118822    -0.06700
C3494       C  0.01213765  0.41504580  0.88199419    -0.17900
C3495       C  0.01335243  0.41694594  0.86579354     0.10500
C3496       C  0.49952829  0.44308113  0.85835277    -0.06700
C3497       C  0.48352907  0.96611881  0.86616755    -0.17900
C3498       C  0.48110230  0.96329746  0.88222167     0.10500
S3499       S  0.03474428  0.38773079  0.85582298    -0.32900
S3500       S  0.45644344  0.99035540  0.89188384    -0.32900
H3501       H  0.44405065  0.96840345  0.90200603     0.28500
H3502       H  0.00952591  0.37861601  0.84677118     0.28500
H3503       H  0.02325681  0.39590719  0.88770939     0.19100
H3504       H  0.47167637  0.98488989  0.86051464     0.19100
C3505       C  0.73980335  0.26064134  0.73498042    -0.06700
C3506       C  0.72276927  0.24328575  0.74560759    -0.17900
C3507       C  0.72677335  0.24706343  0.76153385     0.10500
C3508       C  0.74865186  0.26846136  0.76718656    -0.06700
C3509       C  0.76553208  0.28594032  0.75656743    -0.17900
C3510       C  0.76125656  0.28246133  0.74066124     0.10500
S3511       S  0.70206629  0.22504445  0.77401339    -0.32900
S3512       S  0.78270212  0.30783838  0.72827180    -0.32900
H3513       H  0.75782005  0.31363472  0.71833019     0.28500
H3514       H  0.69659056  0.24932245  0.78431121     0.28500
H3515       H  0.70598132  0.22678353  0.74147381     0.19100
H3516       H  0.78202966  0.30273475  0.76070208     0.19100
C3517       C  0.71226925  0.25207885  0.64303529    -0.06700
C3518       C  0.68624824  0.23796116  0.63645788    -0.17900
C3519       C  0.68154041  0.23762389  0.62044740     0.10500
C3520       C  0.70225409  0.25339000  0.61061782    -0.06700
C3521       C  0.72832944  0.26727831  0.61721780    -0.17900
C3522       C  0.73353800  0.26686861  0.63312207     0.10500
S3523       S  0.65031925  0.21432651  0.61329800    -0.32900
S3524       S  0.76721670  0.28693891  0.63995791    -0.32900
H3525       H  0.75166744  0.30168596  0.65205810     0.28500
H3526       H  0.66691506  0.20258500  0.60072879     0.28500
H3527       H  0.67009593  0.22591348  0.64379315     0.19100
H3528       H  0.74464774  0.27921866  0.60993128     0.19100
C3529       C  0.72045453  0.40906324  0.68734659    -0.06700
C3530       C  0.69438390  0.39222804  0.68287685    -0.17900
C3531       C  0.69495484  0.36012412  0.68223887     0.10500
C3532       C  0.72201209  0.34414225  0.68659187    -0.06700
C3533       C  0.74814683  0.36098982  0.69089416    -0.17900
C3534       C  0.74757833  0.39302561  0.69155393     0.10500
S3535       S  0.66089291  0.34123124  0.67503181    -0.32900
S3536       S  0.78160127  0.41165827  0.69892696    -0.32900
H3537       H  0.76494459  0.43186763  0.70834600     0.28500
H3538       H  0.67722013  0.31971665  0.66613877     0.28500
H3539       H  0.67358971  0.40419788  0.67943608     0.19100
H3540       H  0.76891688  0.34906795  0.69441102     0.19100
C3541       C  0.72645849  0.15932178  0.69010048    -0.06700
C3542       C  0.70146775  0.14430568  0.69712679    -0.17900
C3543       C  0.69914925  0.11215181  0.69745290     0.10500
C3544       C  0.72263723  0.09421419  0.69063462    -0.06700
C3545       C  0.74779829  0.10926864  0.68377046    -0.17900
C3546       C  0.74969667  0.14133483  0.68316212     0.10500
S3547       S  0.66649211  0.09481034  0.70703690    -0.32900
S3548       S  0.78134587  0.15754229  0.67249826    -0.32900
H3549       H  0.76274446  0.17836588  0.66429993     0.28500
H3550       H  0.65182939  0.12213708  0.71156591     0.28500
H3551       H  0.68361237  0.15792730  0.70248190     0.19100
H3552       H  0.76575343  0.09594039  0.67827693     0.19100
C3553       C  0.74646665  0.97687948  0.76513899    -0.06700
C3554       C  0.72358471  0.99805848  0.76082658    -0.17900
C3555       C  0.71830232  0.00559264  0.74535766     0.10500
C3556       C  0.73616563  0.99160666  0.73372470    -0.06700
C3557       C  0.75847269  0.47343353  0.73831787    -0.17900
C3558       C  0.76387283  0.46576213  0.75376619     0.10500
S3559       S  0.68927855  0.03407784  0.74131510    -0.32900
S3560       S  0.79705484  0.44260492  0.75800780    -0.32900
H3561       H  0.80533569  0.45975274  0.77108417     0.28500
H3562       H  0.70554141  0.04797686  0.72917898     0.28500
H3563       H  0.70964913  0.00887745  0.76960921     0.19100
H3564       H  0.77364763  0.46423778  0.72962602     0.19100
C3565       C  0.69475956  0.50393809  0.60980558    -0.06700
C3566       C  0.67618034  0.01953056  0.61927557    -0.17900
C3567       C  0.67986691  0.02079100  0.63533793     0.10500
C3568       C  0.70119141  0.50462232  0.64243158    -0.06700
C3569       C  0.72303703  0.49004932  0.63305634    -0.17900
C3570       C  0.71982529  0.48896187  0.61704943     0.10500
S3571       S  0.65204957  0.04274380  0.64606022    -0.32900
S3572       S  0.74775404  0.46645173  0.60667211    -0.32900
H3573       H  0.72611417  0.45358449  0.59647462     0.28500
H3574       H  0.67387419  0.05603772  0.65602175     0.28500
H3575       H  0.65686364  0.03128943  0.61404470     0.19100
H3576       H  0.74253050  0.47857329  0.63828893     0.19100
C3577       C  0.51684915  0.26590256  0.76587327    -0.06700
C3578       C  0.53553118  0.28586740  0.75723671    -0.17900
C3579       C  0.54143009  0.28069545  0.74157981     0.10500
C3580       C  0.52888849  0.25464154  0.73411765    -0.06700
C3581       C  0.00788145  0.23748537  0.74243117    -0.17900
C3582       C  0.00163886  0.24349429  0.75802558     0.10500
S3583       S  0.56388725  0.30910367  0.73152814    -0.32900
S3584       S  0.97345637  0.21947978  0.76736761    -0.32900
H3585       H  0.96024553  0.24340255  0.77600210     0.28500
H3586       H  0.54448865  0.30946813  0.71859641     0.28500
H3587       H  0.54569883  0.30579386  0.76271716     0.19100
H3588       H  0.99636471  0.21843226  0.73681157     0.19100
C3589       C  0.55687255  0.23759164  0.64240388    -0.06700
C3590       C  0.58000029  0.25579513  0.63564181    -0.17900
C3591       C  0.58265703  0.25861196  0.61956197     0.10500
C3592       C  0.56261123  0.24183598  0.60980664    -0.06700
C3593       C  0.03846062  0.22379121  0.61636452    -0.17900
C3594       C  0.03531961  0.22129902  0.63237742     0.10500
S3595       S  0.61039951  0.28585473  0.61231609    -0.32900
S3596       S  0.00547725  0.19621280  0.63947857    -0.32900
H3597       H  0.02269791  0.18525717  0.65205083     0.28500
H3598       H  0.59169200  0.29659664  0.60025192     0.28500
H3599       H  0.59507384  0.26928865  0.64293343     0.19100
H3600       H  0.02265659  0.21116593  0.60906922     0.19100
C3601       C  0.54383976  0.40038955  0.68745215    -0.06700
C3602       C  0.02004491  0.38495138  0.68019399    -0.17900
C3603       C  0.01895217  0.35289603  0.67916304     0.10500
C3604       C  0.04304546  0.33515778  0.68556075    -0.06700
C3605       C  0.56788380  0.35064404  0.69173979    -0.17900
C3606       C  0.56899251  0.38261112  0.69281744     0.10500
S3607       S  0.98681959  0.33641305  0.66894972    -0.32900
S3608       S  0.60273601  0.39864545  0.70187404    -0.32900
H3609       H  0.58560902  0.41631546  0.71237082     0.28500
H3610       H  0.00497761  0.31525273  0.66076071     0.28500
H3611       H  0.00144471  0.39813145  0.67514317     0.19100
H3612       H  0.58730933  0.33761285  0.69608137     0.19100
C3613       C  0.54476340  0.08486994  0.69096317    -0.06700
C3614       C  0.57221689  0.10079293  0.68775028    -0.17900
C3615       C  0.57324554  0.13295630  0.68731928     0.10500
C3616       C  0.04357313  0.15022099  0.69007690    -0.06700
C3617       C  0.01801328  0.13419638  0.69589393    -0.17900
C3618       C  0.01748495  0.10199957  0.69645331     0.10500
S3619       S  0.60925413  0.15026240  0.68169100    -0.32900
S3620       S  0.98461911  0.08411667  0.70539970    -0.32900
H3621       H  0.00195174  0.06160328  0.71315937     0.28500
H3622       H  0.59562261  0.17037358  0.67099389     0.28500
H3623       H  0.59292454  0.08809774  0.68496060     0.19100
H3624       H  0.99857717  0.14686792  0.70041270     0.19100
C3625       C  0.02966896  0.98185815  0.73336794    -0.06700
C3626       C  0.54303581  0.00156291  0.74413120    -0.17900
C3627       C  0.53732558  0.99804368  0.75996553     0.10500
C3628       C  0.51489632  0.47493223  0.76663675    -0.06700
C3629       C  0.00256451  0.45372054  0.75539262    -0.17900
C3630       C  0.00875409  0.45736266  0.73965180     0.10500
S3631       S  0.55722462  0.02387623  0.77274909    -0.32900
S3632       S  0.99425878  0.42835418  0.72676558    -0.32900
H3633       H  0.02117746  0.42717821  0.71784570     0.28500
H3634       H  0.56626132  0.00063055  0.78304772     0.28500
H3635       H  0.55772199  0.02014979  0.74026157     0.19100
H3636       H  0.98872216  0.43435524  0.75908811     0.19100
C3637       C  0.56371489  0.49809764  0.61015223    -0.06700
C3638       C  0.58606168  0.48349708  0.61934806    -0.17900
C3639       C  0.58326649  0.48203351  0.63548377     0.10500
C3640       C  0.05752807  0.99646456  0.64154225    -0.06700
C3641       C  0.03691710  0.01385137  0.63262761    -0.17900
C3642       C  0.03917954  0.01511203  0.61655106     0.10500
S3643       S  0.61151852  0.45960464  0.64570888    -0.32900
S3644       S  0.01291587  0.04037694  0.60664249    -0.32900
H3645       H  0.03473590  0.05069926  0.59585907     0.28500
H3646       H  0.58991308  0.44506564  0.65532453     0.28500
H3647       H  0.60523414  0.47192895  0.61388532     0.19100
H3648       H  0.01912314  0.02712066  0.63826870     0.19100
O3649       O  0.56304348  0.98950417  0.71126969    -0.72400
O3650       O  0.57522674  0.49474704  0.66948803    -0.72600
O3651       O  0.56759880  0.53663741  0.69214139    -0.72500
O3652       O  0.57049201  0.94903832  0.68821570    -0.72500
O3653       O  0.02121391  0.94871806  0.68378955    -0.72400
O3654       O  0.01841496  0.53610420  0.68848833    -0.72500
O3655       O  0.02630518  0.99623964  0.66421779    -0.72400
O3656       O  0.01132137  0.48862622  0.70826657    -0.72600
V3657       V  0.56682268  0.49308316  0.69111400     1.35200
V3658       V  0.02012815  0.49250351  0.68690617     1.35200
C3659       C  0.03317720  0.48755039  0.71786930     0.76800
C3660       C  0.05389828  0.49569725  0.65997470     0.76900
C3661       C  0.54270380  0.55150224  0.69104015     0.76800
C3662       C  0.54609628  0.93402169  0.68576861     0.76700
O3663       O  0.01117385  0.74685813  0.70797567    -0.72400
O3664       O  0.02717047  0.73905683  0.66500929    -0.72600
O3665       O  0.01951179  0.69917717  0.68832188    -0.72500
O3666       O  0.01934683  0.78630343  0.68455455    -0.72500
O3667       O  0.56726431  0.78662369  0.68855195    -0.72400
O3668       O  0.56715155  0.70019436  0.69302048    -0.72500
O3669       O  0.57444169  0.73949203  0.66928438    -0.72400
O3670       O  0.55950719  0.74868062  0.71245078    -0.72600
V3671       V  0.02023851  0.74278585  0.68657556     1.35200
V3672       V  0.56610364  0.74356022  0.69079884     1.35200
C3673       C  0.53225963  0.75035141  0.71764586     0.76800
C3674       C  0.55222882  0.73834971  0.65983216     0.76900
C3675       C  0.04420047  0.68483901  0.69124316     0.76800
C3676       C  0.04419716  0.80136601  0.68560059     0.76700
O3677       O  0.73376661  0.50484538  0.66468198    -0.72400
O3678       O  0.75256046  0.99777322  0.70763363    -0.72600
O3679       O  0.74452133  0.95818432  0.68454421    -0.72500
O3680       O  0.74099663  0.54548802  0.68770406    -0.72500
O3681       O  0.69172287  0.54438853  0.69146833    -0.72400
O3682       O  0.69538121  0.95809405  0.68903722    -0.72500
O3683       O  0.70043564  0.49870107  0.71210707    -0.72400
O3684       O  0.68856326  0.00434372  0.66868216    -0.72600
V3685       V  0.74426797  0.00149492  0.68620315     1.35200
V3686       V  0.69693217  0.00169958  0.69017301     1.35200
C3687       C  0.71072409  0.00544926  0.65926704     0.76800
C3688       C  0.73041658  0.99670108  0.71706389     0.76900
C3689       C  0.71994637  0.94325393  0.68663151     0.76800
C3690       C  0.71618193  0.55994535  0.68997916     0.76700
O3691       O  0.70133871  0.75492023  0.71065683    -0.72400
O3692       O  0.68836938  0.75017428  0.66718807    -0.72600
O3693       O  0.69510879  0.70864898  0.69003867    -0.72500
O3694       O  0.69428854  0.79568208  0.68775062    -0.72500
O3695       O  0.74360755  0.79578729  0.68377290    -0.72400
O3696       O  0.74457138  0.70880924  0.68689455    -0.72500
O3697       O  0.73782644  0.74968407  0.66371182    -0.72400
O3698       O  0.75069728  0.75588390  0.70691320    -0.72600
V3699       V  0.69572665  0.75222227  0.68886223     1.35200
V3700       V  0.74320652  0.75237090  0.68540295     1.35200
C3701       C  0.72828855  0.75755773  0.71615074     0.76800
C3702       C  0.71100599  0.75030236  0.65800534     0.76900
C3703       C  0.71993058  0.69371496  0.68869781     0.76800
C3704       C  0.71872217  0.81057311  0.68519348     0.76700
O3705       O  0.00708219  0.49013637  0.79267049    -0.72400
O3706       O  0.50076734  0.47531055  0.83594505    -0.72600
O3707       O  0.54760121  0.48182104  0.81599475    -0.72500
O3708       O  0.96029595  0.48342188  0.81283432    -0.72500
O3709       O  0.96123329  0.93595483  0.80866843    -0.72400
O3710       O  0.54847483  0.93442995  0.80951197    -0.72500
O3711       O  0.00392106  0.92805838  0.83084996    -0.72400
O3712       O  0.50681504  0.94220770  0.78730955    -0.72600
V3713       V  0.50410910  0.48211230  0.81434913     1.35200
V3714       V  0.50492805  0.93598266  0.80908063     1.35200
C3715       C  0.51089632  0.96907471  0.78202418     0.76800
C3716       C  0.50201232  0.94995989  0.84018070     0.76900
C3717       C  0.56203125  0.45725947  0.81322053     0.76800
C3718       C  0.94485200  0.45909087  0.81096787     0.76700
O3719       O  0.00715067  0.80348709  0.78798333    -0.72400
O3720       O  0.50064139  0.81588588  0.83163169    -0.72600
O3721       O  0.54689138  0.80997342  0.81131505    -0.72500
O3722       O  0.96010696  0.80979036  0.80822641    -0.72500
O3723       O  0.95892392  0.76051265  0.81204486    -0.72400
O3724       O  0.54683866  0.76041438  0.81411387    -0.72500
O3725       O  0.00106117  0.76538012  0.83463793    -0.72400
O3726       O  0.50482756  0.75410478  0.79162283    -0.72600
V3727       V  0.50354491  0.80885067  0.80987245     1.35200
V3728       V  0.50303135  0.76142221  0.81321294     1.35200
C3729       C  0.50724192  0.77645261  0.78239240     0.76800
C3730       C  0.50085615  0.79315174  0.84078493     0.76900
C3731       C  0.56176045  0.78527491  0.81277826     0.76800
C3732       C  0.94459918  0.78550373  0.80997122     0.76700
O3733       O  0.75461782  0.92856144  0.83047588    -0.72400
O3734       O  0.75330019  0.94305397  0.78692502    -0.72600
O3735       O  0.79772513  0.93513834  0.80837138    -0.72500
O3736       O  0.71061679  0.93581652  0.80896086    -0.72500
O3737       O  0.70947202  0.48227073  0.81517355    -0.72400
O3738       O  0.79650022  0.48322813  0.81092326    -0.72500
O3739       O  0.74828685  0.49121598  0.79174479    -0.72400
O3740       O  0.75689398  0.47509518  0.83439660    -0.72600
V3741       V  0.75415140  0.93653726  0.80874893     1.35200
V3742       V  0.75291588  0.48199034  0.81296197     1.35200
C3743       C  0.75532050  0.44813512  0.83976919     0.76800
C3744       C  0.74844419  0.46979469  0.78196383     0.76900
C3745       C  0.81298165  0.95976148  0.80924873     0.76800
C3746       C  0.69603167  0.96013648  0.81199795     0.76700
O3747       O  0.75826031  0.76899704  0.83418851    -0.72400
O3748       O  0.74760869  0.75511126  0.79118502    -0.72600
O3749       O  0.79657894  0.76172692  0.81012516    -0.72500
O3750       O  0.71001412  0.76217336  0.81526178    -0.72500
O3751       O  0.70908262  0.81078533  0.80975265    -0.72400
O3752       O  0.79645801  0.81137660  0.80785002    -0.72500
O3753       O  0.75064069  0.80424623  0.78710395    -0.72400
O3754       O  0.75433890  0.81810842  0.83043947    -0.72600
V3755       V  0.75322876  0.76294929  0.81260706     1.35200
V3756       V  0.75272264  0.81022622  0.80884596     1.35200
C3757       C  0.75701013  0.79586724  0.83974577     0.76800
C3758       C  0.74707242  0.77736874  0.78180708     0.76900
C3759       C  0.81142886  0.78646689  0.80841033     0.76800
C3760       C  0.69468625  0.78642360  0.81315699     0.76700
O3761       O  0.01713282  0.50297643  0.33623210    -0.72400
O3762       O  0.99443612  0.00116341  0.29226091    -0.72600
O3763       O  0.00125129  0.95928800  0.31475888    -0.72500
O3764       O  0.00871768  0.54520791  0.31408907    -0.72500
O3765       O  0.55799151  0.54414861  0.30984736    -0.72400
O3766       O  0.55194506  0.95601588  0.31044984    -0.72500
O3767       O  0.54977125  0.49862053  0.28890357    -0.72400
O3768       O  0.56142649  0.00100119  0.33093486    -0.72600
V3769       V  0.00384050  0.00291966  0.31372749     1.35200
V3770       V  0.55241196  0.99937552  0.30941959     1.35200
C3771       C  0.53950054  0.00198262  0.34051587     0.76800
C3772       C  0.51775607  0.99650123  0.28267470     0.76900
C3773       C  0.02533927  0.94345097  0.31278882     0.76800
C3774       C  0.03315154  0.56034208  0.31183365     0.76700
O3775       O  0.01184341  0.75012002  0.33544189    -0.72400
O3776       O  0.00052220  0.75277507  0.29187651    -0.72600
O3777       O  0.00735712  0.70775936  0.31289387    -0.72500
O3778       O  0.00492114  0.79482251  0.31446022    -0.72500
O3779       O  0.55639213  0.79501332  0.31223525    -0.72400
O3780       O  0.55858055  0.70793986  0.30984130    -0.72500
O3781       O  0.55179039  0.75424936  0.28928746    -0.72400
O3782       O  0.56325152  0.74949011  0.33283262    -0.72600
V3783       V  0.00713076  0.75132201  0.31360011     1.35200
V3784       V  0.55656056  0.75152735  0.31109903     1.35200
C3785       C  0.54039154  0.74970640  0.34188092     0.76800
C3786       C  0.52506490  0.75372519  0.28342775     0.76900
C3787       C  0.03236967  0.69362072  0.31063612     0.76800
C3788       C  0.02939405  0.81050242  0.31367824     0.76700
O3789       O  0.72912353  0.00623110  0.33509489    -0.72400
O3790       O  0.74207130  0.50195564  0.29158505    -0.72600
O3791       O  0.73572915  0.54780085  0.31222431    -0.72500
O3792       O  0.73560856  0.95997813  0.31502822    -0.72500
O3793       O  0.68603612  0.95910357  0.31175598    -0.72400
O3794       O  0.68655413  0.54667237  0.30804821    -0.72500
O3795       O  0.69228440  0.99834967  0.28820737    -0.72400
O3796       O  0.68100915  0.50713306  0.33185881    -0.72600
V3797       V  0.73523091  0.50411665  0.31324169     1.35200
V3798       V  0.68766254  0.50330593  0.31013405     1.35200
C3799       C  0.70389033  0.50728995  0.34094413     0.76800
C3800       C  0.71941759  0.49857522  0.28257421     0.76900
C3801       C  0.71089016  0.56222112  0.30976695     0.76800
C3802       C  0.71085474  0.94473502  0.31400842     0.76700
O3803       O  0.69442179  0.75717101  0.28746143    -0.72400
O3804       O  0.68127361  0.75094967  0.33091515    -0.72600
O3805       O  0.68702198  0.79725151  0.31055231    -0.72500
O3806       O  0.68844363  0.71051476  0.30765960    -0.72500
O3807       O  0.73798181  0.71079994  0.31068190    -0.72400
O3808       O  0.73619052  0.79768061  0.31512186    -0.72500
O3809       O  0.73070837  0.74952234  0.33447142    -0.72400
O3810       O  0.74373550  0.75932299  0.29135647    -0.72600
V3811       V  0.68873840  0.75393330  0.30923533     1.35200
V3812       V  0.73619579  0.75427450  0.31284223     1.35200
C3813       C  0.72135959  0.75996202  0.28201112     0.76800
C3814       C  0.70385527  0.74880618  0.34012065     0.76900
C3815       C  0.71137369  0.81229866  0.31307133     0.76800
C3816       C  0.71342653  0.69572059  0.30853440     0.76700
O3817       O  0.04311154  0.50457549  0.46002182    -0.72400
O3818       O  0.03115935  0.00517090  0.41514195    -0.72600
O3819       O  0.03391052  0.96071336  0.43658867    -0.72500
O3820       O  0.04156748  0.54868276  0.43848787    -0.72500
O3821       O  0.59077120  0.54672027  0.43783480    -0.72400
O3822       O  0.58429801  0.96009649  0.43538801    -0.72500
O3823       O  0.58700699  0.50539238  0.41470394    -0.72400
O3824       O  0.58573753  0.00302576  0.45763525    -0.72600
V3825       V  0.03452873  0.00443703  0.43692677     1.35200
V3826       V  0.58254735  0.00363037  0.43573676     1.35200
C3827       C  0.56152353  0.00286746  0.46575837     0.76800
C3828       C  0.55523417  0.00450200  0.40699025     0.76900
C3829       C  0.05895033  0.94600064  0.43547106     0.76800
C3830       C  0.06694593  0.56290739  0.43841371     0.76700
O3831       O  0.04234297  0.75414246  0.46071403    -0.72400
O3832       O  0.03379522  0.75174640  0.41698642    -0.72600
O3833       O  0.04004076  0.70937949  0.43917525    -0.72500
O3834       O  0.03626317  0.79647399  0.43823463    -0.72500
O3835       O  0.58706424  0.79715089  0.43685073    -0.72400
O3836       O  0.58955568  0.70980626  0.43705084    -0.72500
O3837       O  0.58418088  0.75290259  0.41499644    -0.72400
O3838       O  0.59242352  0.75359957  0.45885942    -0.72600
V3839       V  0.03911682  0.75297604  0.43876163     1.35200
V3840       V  0.58735846  0.75341204  0.43697811     1.35200
C3841       C  0.56890186  0.75304280  0.46744756     0.76800
C3842       C  0.55787986  0.75160293  0.40866226     0.76900
C3843       C  0.06544359  0.69551102  0.43771886     0.76800
C3844       C  0.06043894  0.81251223  0.43723250     0.76700
O3845       O  0.71629932  0.50321713  0.41655905    -0.72400
O3846       O  0.71077067  0.99661136  0.46043393    -0.72600
O3847       O  0.71507492  0.95604813  0.43703696    -0.72500
O3848       O  0.71174764  0.54390229  0.43981639    -0.72500
O3849       O  0.66218755  0.54198038  0.43654943    -0.72400
O3850       O  0.66509264  0.95455974  0.43720016    -0.72500
O3851       O  0.66150906  0.49919428  0.45885993    -0.72400
O3852       O  0.66676282  0.99793984  0.41491500    -0.72600
V3853       V  0.71252653  0.99962490  0.43857059     1.35200
V3854       V  0.66468848  0.99821553  0.43697434     1.35200
C3855       C  0.69267418  0.00070107  0.40829760     0.76800
C3856       C  0.68499754  0.99757740  0.46721135     0.76900
C3857       C  0.69050815  0.94041979  0.43676164     0.76800
C3858       C  0.68626545  0.55776579  0.43858858     0.76700
O3859       O  0.65988457  0.75053007  0.45770436    -0.72400
O3860       O  0.66513784  0.74955849  0.41379892    -0.72600
O3861       O  0.66093439  0.70617149  0.43590962    -0.72500
O3862       O  0.66417374  0.79343923  0.43566280    -0.72500
O3863       O  0.71414895  0.79178168  0.43634752    -0.72400
O3864       O  0.71071421  0.70450821  0.43817873    -0.72500
O3865       O  0.71489099  0.74622849  0.41528530    -0.72400
O3866       O  0.70977098  0.74982948  0.45911368    -0.72600
V3867       V  0.66350625  0.74984248  0.43577370     1.35200
V3868       V  0.71141664  0.74812680  0.43718845     1.35200
C3869       C  0.68397911  0.75046712  0.46591786     0.76800
C3870       C  0.69089304  0.74789667  0.40701194     0.76900
C3871       C  0.68529451  0.69045602  0.43719350     0.76800
C3872       C  0.68965823  0.80748157  0.43613448     0.76700
O3873       O  0.49430793  0.91048178  0.04179495    -0.72400
O3874       O  0.99318593  0.91607669  0.08569240    -0.72600
O3875       O  0.94969143  0.91088037  0.06360281    -0.72500
O3876       O  0.53679072  0.91480504  0.06415524    -0.72500
O3877       O  0.53663774  0.46854520  0.06330530    -0.72400
O3878       O  0.94910518  0.46538661  0.06156088    -0.72500
O3879       O  0.49131391  0.47175714  0.08434631    -0.72400
O3880       O  0.99392067  0.46253901  0.04043386    -0.72600
V3881       V  0.99332984  0.91384973  0.06369127     1.35200
V3882       V  0.99282781  0.46589499  0.06226807     1.35200
C3883       C  0.99457482  0.43633422  0.03414316     0.76800
C3884       C  0.99195795  0.44828483  0.09286177     0.76900
C3885       C  0.93369163  0.93501440  0.06262802     0.76800
C3886       C  0.55087128  0.94017221  0.06333722     0.76700
O3887       O  0.99814097  0.83515747  0.04156816    -0.72400
O3888       O  0.49421406  0.83009228  0.08583914    -0.72600
O3889       O  0.54025038  0.83228132  0.06502395    -0.72500
O3890       O  0.95312221  0.83340167  0.06263083    -0.72500
O3891       O  0.95264198  0.78356201  0.06155553    -0.72400
O3892       O  0.53997983  0.78255737  0.06365948    -0.72500
O3893       O  0.99455573  0.78131616  0.08427004    -0.72400
O3894       O  0.49878877  0.78484816  0.04069791    -0.72600
V3895       V  0.49652572  0.83137384  0.06383556     1.35200
V3896       V  0.49652459  0.78354050  0.06263499     1.35200
C3897       C  0.49966751  0.81051052  0.03381805     0.76800
C3898       C  0.49343939  0.80437946  0.09270639     0.76900
C3899       C  0.55507292  0.80728697  0.06448153     0.76800
C3900       C  0.93801564  0.80862793  0.06168725     0.76700
O3901       O  0.74210100  0.91617210  0.08505707    -0.72400
O3902       O  0.74214413  0.91134979  0.04096091    -0.72600
O3903       O  0.78542620  0.91263638  0.06299474    -0.72500
O3904       O  0.69829681  0.91447408  0.06286524    -0.72500
O3905       O  0.70041475  0.46757422  0.06183382    -0.72400
O3906       O  0.78779042  0.46595857  0.05993356    -0.72500
O3907       O  0.74221295  0.46337055  0.03911830    -0.72400
O3908       O  0.74606780  0.47039183  0.08278031    -0.72600
V3909       V  0.74194489  0.91461366  0.06297396     1.35200
V3910       V  0.74411673  0.46584824  0.06097559     1.35200
C3911       C  0.74568562  0.44690831  0.09139400     0.76800
C3912       C  0.74248239  0.43743278  0.03254451     0.76900
C3913       C  0.80082642  0.93711023  0.06172832     0.76800
C3914       C  0.68381456  0.93959672  0.06209931     0.76700
O3915       O  0.74598861  0.78273230  0.08304164    -0.72400
O3916       O  0.74689861  0.78842670  0.03929097    -0.72600
O3917       O  0.79013850  0.78536295  0.06149196    -0.72500
O3918       O  0.70298258  0.78600884  0.06117856    -0.72500
O3919       O  0.70322830  0.83548968  0.06415447    -0.72400
O3920       O  0.79051720  0.83528000  0.06151314    -0.72500
O3921       O  0.74415793  0.83809477  0.04075105    -0.72400
O3922       O  0.74950664  0.83237665  0.08471507    -0.72600
V3923       V  0.74652615  0.78662123  0.06122699     1.35200
V3924       V  0.74685750  0.83440972  0.06272177     1.35200
C3925       C  0.74772088  0.80648631  0.09137422     0.76800
C3926       C  0.74507735  0.81410101  0.03247502     0.76900
C3927       C  0.80519583  0.81021833  0.06165148     0.76800
C3928       C  0.68821849  0.81065959  0.06330201     0.76700
O3929       O  0.99270198  0.49367910  0.16593994    -0.72400
O3930       O  0.49429449  0.50377539  0.20969362    -0.72600
O3931       O  0.53700768  0.49858200  0.18757080    -0.72500
O3932       O  0.94982039  0.49861842  0.18803931    -0.72500
O3933       O  0.95143666  0.94291904  0.19006205    -0.72400
O3934       O  0.53859325  0.94415295  0.18950128    -0.72500
O3935       O  0.99578122  0.95039219  0.21158439    -0.72400
O3936       O  0.49434280  0.93649666  0.16826099    -0.72600
V3937       V  0.49337852  0.49774671  0.18797078     1.35200
V3938       V  0.49505857  0.94395626  0.18992921     1.35200
C3939       C  0.49538705  0.95900446  0.15901938     0.76800
C3940       C  0.49510988  0.97649493  0.21730787     0.76900
C3941       C  0.55176794  0.47358905  0.18784311     0.76800
C3942       C  0.93482668  0.47401425  0.18994099     0.76700
O3943       O  0.99594629  0.81743280  0.16856967    -0.72400
O3944       O  0.50241755  0.80262130  0.21259566    -0.72600
O3945       O  0.54212099  0.80906297  0.18940882    -0.72500
O3946       O  0.95521760  0.81155672  0.19197520    -0.72500
O3947       O  0.95378765  0.76242036  0.18793785    -0.72400
O3948       O  0.54111999  0.75975747  0.18579260    -0.72500
O3949       O  0.00019351  0.75480167  0.20821318    -0.72400
O3950       O  0.49493755  0.76698013  0.16554491    -0.72600
V3951       V  0.49869370  0.80850656  0.19087199     1.35200
V3952       V  0.49765702  0.76119237  0.18724984     1.35200
C3953       C  0.49487820  0.79383375  0.15989852     0.76800
C3954       C  0.50387903  0.77564419  0.21806159     0.76900
C3955       C  0.55650173  0.78418049  0.18738579     0.76800
C3956       C  0.93959013  0.78715413  0.19060011     0.76700
O3957       O  0.74158857  0.94728956  0.21163789    -0.72400
O3958       O  0.74579158  0.93423560  0.16806057    -0.72600
O3959       O  0.78767466  0.94040264  0.19089722    -0.72500
O3960       O  0.70047427  0.94101619  0.18891974    -0.72500
O3961       O  0.69945665  0.49596711  0.18555051    -0.72400
O3962       O  0.78676130  0.49688920  0.18649493    -0.72500
O3963       O  0.74396178  0.49042887  0.16420370    -0.72400
O3964       O  0.74186983  0.50249774  0.20766907    -0.72600
V3965       V  0.74401998  0.94163742  0.18980601     1.35200
V3966       V  0.74309332  0.49546890  0.18600815     1.35200
C3967       C  0.74003638  0.47994882  0.21683023     0.76800
C3968       C  0.74481329  0.46379856  0.15834082     0.76900
C3969       C  0.80291861  0.96465350  0.18840794     0.76800
C3970       C  0.68591606  0.96608650  0.18833004     0.76700
O3971       O  0.74492270  0.75766431  0.20760365    -0.72400
O3972       O  0.75061650  0.76788402  0.16419399    -0.72600
O3973       O  0.79190560  0.76389610  0.18743180    -0.72500
O3974       O  0.70457664  0.76232413  0.18448352    -0.72500
O3975       O  0.70375936  0.81179828  0.18736177    -0.72400
O3976       O  0.79048519  0.81330259  0.19027610    -0.72500
O3977       O  0.74997578  0.81745599  0.16694782    -0.72400
O3978       O  0.74411818  0.80715765  0.21064095    -0.72600
V3979       V  0.74813087  0.76390192  0.18598152     1.35200
V3980       V  0.74714118  0.81146430  0.18874358     1.35200
C3981       C  0.74294144  0.78050613  0.21653251     0.76800
C3982       C  0.75084796  0.79429430  0.15811445     0.76900
C3983       C  0.80616759  0.78904602  0.18931246     0.76800
C3984       C  0.68927508  0.78695599  0.18547524     0.76700
O3985       O  0.99759606  0.45987143  0.91618307    -0.72400
O3986       O  0.49261832  0.45758989  0.96018270    -0.72600
O3987       O  0.53872736  0.46024667  0.93961437    -0.72500
O3988       O  0.95129252  0.45683107  0.93656132    -0.72500
O3989       O  0.95334141  0.91082928  0.93622115    -0.72400
O3990       O  0.54093564  0.91009433  0.93676610    -0.72500
O3991       O  0.99662735  0.90883536  0.95842476    -0.72400
O3992       O  0.49748117  0.91167442  0.91436846    -0.72600
V3993       V  0.49515322  0.45802156  0.93832252     1.35200
V3994       V  0.49719226  0.91093417  0.93650450     1.35200
C3995       C  0.49718730  0.93728119  0.90734475     0.76800
C3996       C  0.49594601  0.93295129  0.96639277     0.76900
C3997       C  0.55440549  0.43578792  0.93940144     0.76800
C3998       C  0.93725867  0.43136005  0.93651872     0.76700
O3999       O  0.99677735  0.83195600  0.91427377    -0.72400
O4000       O  0.49657425  0.83767770  0.95861819    -0.72600
O4001       O  0.54037936  0.83563968  0.93662970    -0.72500
O4002       O  0.95329879  0.83515097  0.93612210    -0.72500
O4003       O  0.95254322  0.78552459  0.93852257    -0.72400
O4004       O  0.54027392  0.78579518  0.93730122    -0.72500
O4005       O  0.99785361  0.78730656  0.95957813    -0.72400
O4006       O  0.49551538  0.78366757  0.91595797    -0.72600
V4007       V  0.49678570  0.83470727  0.93657235     1.35200
V4008       V  0.49661051  0.78687195  0.93779200     1.35200
C4009       C  0.49592563  0.80763844  0.90770369     0.76800
C4010       C  0.49738964  0.81335890  0.96668075     0.76900
C4011       C  0.55523661  0.81070945  0.93697094     0.76800
C4012       C  0.93804894  0.81063594  0.93756464     0.76700
O4013       O  0.74811016  0.91164724  0.95776105    -0.72400
O4014       O  0.74662541  0.91535894  0.91373167    -0.72600
O4015       O  0.79081164  0.91344166  0.93537397    -0.72500
O4016       O  0.70342242  0.91366482  0.93628190    -0.72500
O4017       O  0.70339824  0.46195667  0.93680206    -0.72400
O4018       O  0.79062408  0.45854483  0.93575145    -0.72500
O4019       O  0.74638599  0.46130890  0.91447957    -0.72400
O4020       O  0.74764396  0.45913623  0.95824064    -0.72600
V4021       V  0.74720707  0.91446241  0.93579433     1.35200
V4022       V  0.74698259  0.45922644  0.93631631     1.35200
C4023       C  0.74733459  0.43392205  0.96550990     0.76800
C4024       C  0.74507293  0.43699476  0.90653391     0.76900
C4025       C  0.80573501  0.93836518  0.93585430     0.76800
C4026       C  0.68865413  0.93870732  0.93659199     0.76700
O4027       O  0.74617457  0.79058880  0.95801728    -0.72400
O4028       O  0.74811970  0.78733598  0.91431446    -0.72600
O4029       O  0.79045534  0.78909515  0.93664460    -0.72500
O4030       O  0.70319383  0.78916165  0.93569899    -0.72500
O4031       O  0.70320142  0.83898900  0.93482865    -0.72400
O4032       O  0.79055432  0.83894472  0.93549243    -0.72500
O4033       O  0.74765254  0.83713758  0.91315023    -0.72400
O4034       O  0.74630930  0.84040594  0.95727098    -0.72600
V4035       V  0.74687999  0.79006371  0.93614371     1.35200
V4036       V  0.74688593  0.83794540  0.93521426     1.35200
C4037       C  0.74662818  0.81587354  0.96517567     0.76800
C4038       C  0.74863022  0.81150032  0.90622245     0.76900
C4039       C  0.80537055  0.81399787  0.93603208     0.76800
C4040       C  0.68826175  0.81407752  0.93510327     0.76700
O4041       O  0.04223507  0.49631977  0.58467674    -0.72400
O4042       O  0.04113079  0.99293683  0.53996962    -0.72600
O4043       O  0.04116355  0.95026034  0.56270993    -0.72500
O4044       O  0.04503770  0.53841056  0.56204008    -0.72500
O4045       O  0.59515017  0.53783678  0.56405979    -0.72400
O4046       O  0.59214930  0.95151719  0.56225641    -0.72500
O4047       O  0.59717913  0.49382150  0.54222979    -0.72400
O4048       O  0.59008726  0.99476027  0.58451286    -0.72600
V4049       V  0.04104455  0.99405319  0.56192529     1.35200
V4050       V  0.59002522  0.99511814  0.56249502     1.35200
C4051       C  0.56469783  0.99606265  0.59166145     0.76800
C4052       C  0.56709935  0.99433526  0.53271104     0.76900
C4053       C  0.06657690  0.93602471  0.56260603     0.76800
C4054       C  0.07016417  0.55305869  0.56263012     0.76700
O4055       O  0.04335100  0.74105758  0.58516728    -0.72400
O4056       O  0.04542838  0.74760762  0.54135689    -0.72600
O4057       O  0.04492363  0.70068656  0.56183738    -0.72500
O4058       O  0.04407817  0.78786224  0.56494428    -0.72500
O4059       O  0.59398145  0.78819957  0.56373896    -0.72400
O4060       O  0.59442110  0.70111074  0.56498697    -0.72500
O4061       O  0.59566357  0.74341899  0.54221873    -0.72400
O4062       O  0.59228569  0.74579359  0.58629679    -0.72600
V4063       V  0.04537392  0.74430511  0.56331017     1.35200
V4064       V  0.59317749  0.74462734  0.56426051     1.35200
C4065       C  0.56669572  0.74340939  0.59322207     0.76800
C4066       C  0.57121537  0.74560621  0.53429674     0.76900
C4067       C  0.06986617  0.68601785  0.56347864     0.76800
C4068       C  0.06895609  0.80298751  0.56459261     0.76700
O4069       O  0.71282908  0.50706440  0.54082799    -0.72400
O4070       O  0.71857025  0.00652879  0.58444250    -0.72600
O4071       O  0.71372711  0.96303169  0.56282302    -0.72500
O4072       O  0.71518980  0.55111431  0.56260770    -0.72500
O4073       O  0.66528162  0.55168527  0.56390931    -0.72400
O4074       O  0.66382662  0.96502777  0.56415071    -0.72500
O4075       O  0.66678799  0.50756457  0.58586249    -0.72400
O4076       O  0.66316319  0.00948988  0.54234183    -0.72600
V4077       V  0.71469484  0.00660092  0.56271591     1.35200
V4078       V  0.66681917  0.00859785  0.56430534     1.35200
C4079       C  0.68715011  0.00761020  0.53407961     0.76800
C4080       C  0.69483041  0.00636253  0.59283916     0.76900
C4081       C  0.68817779  0.94917888  0.56368836     0.76800
C4082       C  0.69042985  0.56631181  0.56329366     0.76700
O4083       O  0.71017745  0.75774998  0.53944947    -0.72400
O4084       O  0.71665710  0.75839079  0.58303978    -0.72600
O4085       O  0.71417192  0.71460858  0.56136121    -0.72500
O4086       O  0.71237129  0.80184034  0.56105937    -0.72500
O4087       O  0.66282109  0.80096031  0.56425912    -0.72400
O4088       O  0.66419731  0.71373971  0.56174702    -0.72500
O4089       O  0.66700583  0.75459583  0.58497728    -0.72400
O4090       O  0.66036278  0.75980403  0.54108815    -0.72600
V4091       V  0.71235492  0.75821425  0.56127767     1.35200
V4092       V  0.66450171  0.75733523  0.56300628     1.35200
C4093       C  0.68430356  0.75880927  0.53277695     0.76800
C4094       C  0.69314931  0.75550028  0.59149851     0.76900
C4095       C  0.68942183  0.69927715  0.56123269     0.76800
C4096       C  0.68731123  0.81631381  0.56254324     0.76700
C4097       C  0.68715404  0.91526059  0.56377095    -0.06700
C4098       C  0.70730696  0.89959202  0.55396368    -0.17900
C4099       C  0.70704671  0.86757301  0.55294503     0.10500
C4100       C  0.68674238  0.85033301  0.56228846    -0.06700
C4101       C  0.66625006  0.86600647  0.57201006    -0.17900
C4102       C  0.66653728  0.89817841  0.57302352     0.10500
S4103       S  0.73221442  0.85040712  0.53890411    -0.32900
S4104       S  0.64123766  0.91581501  0.58686948    -0.32900
H4105       H  0.66214656  0.93889968  0.59129040     0.28500
H4106       H  0.71107958  0.82774354  0.53425535     0.28500
H4107       H  0.72285056  0.91248879  0.54665494     0.19100
H4108       H  0.65064524  0.85308214  0.57926942     0.19100
C4109       C  0.69067518  0.60033817  0.56301536    -0.06700
C4110       C  0.66734253  0.61559317  0.55485399    -0.17900
C4111       C  0.66728695  0.64761998  0.55339186     0.10500
C4112       C  0.69012191  0.66526542  0.56090102    -0.06700
C4113       C  0.71369145  0.65001857  0.56888217    -0.17900
C4114       C  0.71416303  0.61793966  0.57008522     0.10500
S4115       S  0.63878595  0.66429034  0.54091056    -0.32900
S4116       S  0.74446387  0.60112907  0.58148510    -0.32900
H4117       H  0.72539134  0.57904119  0.58848747     0.28500
H4118       H  0.65823112  0.68731015  0.53499724     0.28500
H4119       H  0.64960226  0.60238525  0.54906072     0.19100
H4120       H  0.73138317  0.66324956  0.57469461     0.19100
C4121       C  0.06758782  0.90194393  0.56305311    -0.06700
C4122       C  0.04661930  0.88617454  0.57246144    -0.17900
C4123       C  0.04734666  0.85406398  0.57376591     0.10500
C4124       C  0.06894000  0.83698724  0.56510208    -0.06700
C4125       C  0.59075202  0.85253999  0.55597096    -0.17900
C4126       C  0.59038343  0.88456377  0.55475264     0.10500
S4127       S  0.02118850  0.83654057  0.58725960    -0.32900
S4128       S  0.61671553  0.90168858  0.54135221    -0.32900
H4129       H  0.59427190  0.92200467  0.53571558     0.28500
H4130       H  0.04159813  0.81329329  0.59195729     0.28500
H4131       H  0.03005988  0.89903193  0.57919413     0.19100
H4132       H  0.60723653  0.83963163  0.54921734     0.19100
C4133       C  0.07056715  0.58704717  0.56222256    -0.06700
C4134       C  0.59146758  0.60263668  0.57179257    -0.17900
C4135       C  0.59112762  0.63473291  0.57281939     0.10500
C4136       C  0.07012939  0.65200286  0.56368219    -0.06700
C4137       C  0.04953522  0.63626245  0.55406788    -0.17900
C4138       C  0.04979479  0.60418570  0.55309401     0.10500
S4139       S  0.61692374  0.65207583  0.58651915    -0.32900
S4140       S  0.02451766  0.58663689  0.53922317    -0.32900
H4141       H  0.04652418  0.56494495  0.53453013     0.28500
H4142       H  0.59562436  0.67420641  0.59157511     0.28500
H4143       H  0.60729700  0.58977339  0.57896933     0.19100
H4144       H  0.03376985  0.64910086  0.54684009     0.19100
C4145       C  0.90411968  0.81162517  0.93777166    -0.06700
C4146       C  0.88920940  0.83365046  0.92860793    -0.17900
C4147       C  0.85712082  0.83475819  0.92760670     0.10500
C4148       C  0.83928634  0.81366765  0.93617304    -0.06700
C4149       C  0.85419434  0.79174320  0.94537211    -0.17900
C4150       C  0.88625932  0.79089119  0.94651884     0.10500
S4151       S  0.84060310  0.86224744  0.91445237    -0.32900
S4152       S  0.90273964  0.76404017  0.95999440    -0.32900
H4153       H  0.92571418  0.78430309  0.96526586     0.28500
H4154       H  0.81763669  0.84227537  0.90891199     0.28500
H4155       H  0.90269925  0.84961032  0.92179361     0.19100
H4156       H  0.84072785  0.77564602  0.95209987     0.19100
C4157       C  0.58925059  0.81100513  0.93666405    -0.06700
C4158       C  0.60404561  0.83466611  0.92856075    -0.17900
C4159       C  0.63621531  0.83637685  0.92775777     0.10500
C4160       C  0.65417584  0.81375498  0.93523103    -0.06700
C4161       C  0.63932815  0.79006422  0.94331174    -0.17900
C4162       C  0.60715334  0.78856098  0.94425388     0.10500
S4163       S  0.65359277  0.86657490  0.91645623    -0.32900
S4164       S  0.58952610  0.75894690  0.95589823    -0.32900
H4165       H  0.61689687  0.74508546  0.96106134     0.28500
H4166       H  0.62640448  0.88269180  0.91295885     0.28500
H4167       H  0.59022655  0.85172323  0.92267419     0.19100
H4168       H  0.65310473  0.77299970  0.94921241     0.19100
C4169       C  0.83955312  0.93811043  0.93556593    -0.06700
C4170       C  0.85469379  0.91684043  0.94492802    -0.17900
C4171       C  0.88671812  0.91589903  0.94565917     0.10500
C4172       C  0.90320147  0.43039408  0.93573706    -0.06700
C4173       C  0.88804242  0.45113388  0.92594670    -0.17900
C4174       C  0.85586181  0.45181481  0.92496086     0.10500
S4175       S  0.90311299  0.89134047  0.95996826    -0.32900
S4176       S  0.83875324  0.47813500  0.91141755    -0.32900
H4177       H  0.81424400  0.45861072  0.90731899     0.28500
H4178       H  0.92008451  0.87426245  0.94938029     0.28500
H4179       H  0.84143290  0.90127120  0.95205590     0.19100
H4180       H  0.90134979  0.46677938  0.91890028     0.19100
C4181       C  0.65457094  0.93883232  0.93722639    -0.06700
C4182       C  0.63952716  0.91524088  0.94533019    -0.17900
C4183       C  0.60733112  0.91392072  0.94614693     0.10500
C4184       C  0.58836626  0.43703207  0.94008939    -0.06700
C4185       C  0.60337676  0.46101924  0.93237922    -0.17900
C4186       C  0.63548709  0.46251743  0.93169290     0.10500
S4187       S  0.59054130  0.88502641  0.95841920    -0.32900
S4188       S  0.65188754  0.49447654  0.92147752    -0.32900
H4189       H  0.66613449  0.50646273  0.93471433     0.28500
H4190       H  0.56656322  0.90386042  0.96378313     0.28500
H4191       H  0.65297041  0.89804682  0.95135887     0.19100
H4192       H  0.58996082  0.47857716  0.92661763     0.19100
C4193       C  0.90551476  0.78775063  0.19162184    -0.06700
C4194       C  0.89012399  0.81530213  0.18827527    -0.17900
C4195       C  0.85795894  0.81680727  0.18787035     0.10500
C4196       C  0.84029232  0.78984392  0.19045548    -0.06700
C4197       C  0.85574918  0.76249154  0.19414344    -0.17900
C4198       C  0.88785674  0.76131395  0.19514092     0.10500
S4199       S  0.84131500  0.85358449  0.18328930    -0.32900
S4200       S  0.90454625  0.72568657  0.20164411    -0.32900
H4201       H  0.92629921  0.73992687  0.21132166     0.28500
H4202       H  0.82656653  0.85595725  0.19763289     0.28500
H4203       H  0.90325216  0.83586751  0.18568805     0.19100
H4204       H  0.84268046  0.74184330  0.19662595     0.19100
C4205       C  0.59043695  0.78406169  0.18682969    -0.06700
C4206       C  0.60542975  0.81104012  0.18213200    -0.17900
C4207       C  0.63755097  0.81269069  0.18128322     0.10500
C4208       C  0.65527242  0.78647248  0.18509162    -0.06700
C4209       C  0.64021028  0.75935545  0.18957021    -0.17900
C4210       C  0.60820562  0.75804824  0.19082016     0.10500
S4211       S  0.65502960  0.84807038  0.17466771    -0.32900
S4212       S  0.59190168  0.72326767  0.19861917    -0.32900
H4213       H  0.57176597  0.73870020  0.20865716     0.28500
H4214       H  0.62852953  0.86655362  0.17559558     0.28500
H4215       H  0.59183673  0.83087720  0.17890805     0.19100
H4216       H  0.65354017  0.73933703  0.19283839     0.19100
C4217       C  0.83696448  0.96461291  0.18846990    -0.06700
C4218       C  0.85167991  0.49336254  0.18032627    -0.17900
C4219       C  0.88384573  0.49365823  0.17982479     0.10500
C4220       C  0.90079919  0.47395263  0.18961070    -0.06700
C4221       C  0.88668802  0.94534672  0.19699544    -0.17900
C4222       C  0.85453434  0.94484790  0.19795206     0.10500
S4223       S  0.90164341  0.51828959  0.16571554    -0.32900
S4224       S  0.83765577  0.92006299  0.21225840    -0.32900
H4225       H  0.81547211  0.94155920  0.21703903     0.28500
H4226       H  0.92373305  0.49649372  0.16115655     0.28500
H4227       H  0.83898886  0.50821190  0.17259317     0.19100
H4228       H  0.89991931  0.93044983  0.20449432     0.19100
C4229       C  0.58570938  0.47302440  0.18696476    -0.06700
C4230       C  0.60219845  0.94450497  0.19491290    -0.17900
C4231       C  0.63423486  0.94307735  0.19558713     0.10500
C4232       C  0.65193924  0.96690783  0.18894854    -0.06700
C4233       C  0.63510039  0.49505117  0.17985013    -0.17900
C4234       C  0.60296101  0.49615080  0.17945726     0.10500
S4235       S  0.65067158  0.91094249  0.20578242    -0.32900
S4236       S  0.58562532  0.52680670  0.16852571    -0.32900
H4237       H  0.56325394  0.50787864  0.16161455     0.28500
H4238       H  0.67240899  0.92892509  0.21369995     0.28500
H4239       H  0.58902860  0.92592794  0.19998687     0.19100
H4240       H  0.64802216  0.51282257  0.17395425     0.19100
C4241       C  0.74756032  0.81634921  0.98237726    -0.06700
C4242       C  0.72994909  0.83802599  0.99046569    -0.17900
C4243       C  0.72807094  0.83750425  0.00663339     0.10500
C4244       C  0.74496796  0.81553475  0.01523001    -0.06700
C4245       C  0.76275936  0.79407006  0.00708971    -0.17900
C4246       C  0.76451277  0.79443304  0.99096716     0.10500
S4247       S  0.70159100  0.86375787  0.01541769    -0.32900
S4248       S  0.79018348  0.76721117  0.98211148    -0.32900
H4249       H  0.80103897  0.78809125  0.97103102     0.28500
H4250       H  0.69119210  0.84263152  0.02650190     0.28500
H4251       H  0.71651667  0.85474823  0.98412216     0.19100
H4252       H  0.77613710  0.77721643  0.01337208     0.19100
C4253       C  0.74769945  0.80381773  0.10847832    -0.06700
C4254       C  0.76958421  0.82029439  0.11708084    -0.17900
C4255       C  0.77151187  0.81741404  0.13317765     0.10500
C4256       C  0.75101834  0.79765152  0.14105429    -0.06700
C4257       C  0.72944437  0.78081046  0.13242602    -0.17900
C4258       C  0.72724888  0.78400083  0.11638666     0.10500
S4259       S  0.80170650  0.83821635  0.14289243    -0.32900
S4260       S  0.69694927  0.76307632  0.10679077    -0.32900
H4261       H  0.69036925  0.78625202  0.09601649     0.28500
H4262       H  0.80723867  0.81567098  0.15415201     0.28500
H4263       H  0.78611285  0.83454448  0.11113872     0.19100
H4264       H  0.71346006  0.76573476  0.13829293     0.19100
C4265       C  0.74224620  0.43528135  0.01539235    -0.06700
C4266       C  0.76150824  0.91378949  0.00798350    -0.17900
C4267       C  0.76426871  0.91399526  0.99183704     0.10500
C4268       C  0.74660449  0.43372907  0.98267596    -0.06700
C4269       C  0.72670985  0.45432446  0.99012128    -0.17900
C4270       C  0.72402619  0.45503743  0.00619550     0.10500
S4271       S  0.79216881  0.88847209  0.98338856    -0.32900
S4272       S  0.69587574  0.48088146  0.01420483    -0.32900
H4273       H  0.68697794  0.46116451  0.02622418     0.28500
H4274       H  0.80172172  0.90935268  0.97201734     0.28500
H4275       H  0.77553547  0.89806708  0.01462566     0.19100
H4276       H  0.71244640  0.46957598  0.98330720     0.19100
C4277       C  0.74445550  0.45936085  0.14119249    -0.06700
C4278       C  0.76081247  0.92957635  0.13473940    -0.17900
C4279       C  0.76198019  0.92617153  0.11861628     0.10500
C4280       C  0.74637847  0.45048790  0.10855816    -0.06700
C4281       C  0.73195053  0.47628979  0.11505382    -0.17900
C4282       C  0.73042046  0.48071607  0.13103468     0.10500
S4283       S  0.78986766  0.89979382  0.11091836    -0.32900
S4284       S  0.70854522  0.51331023  0.13762725    -0.32900
H4285       H  0.69330064  0.49689535  0.14930923     0.28500
H4286       H  0.79782699  0.91819561  0.09824207     0.28500
H4287       H  0.77578902  0.91556678  0.14184919     0.19100
H4288       H  0.72077446  0.49284555  0.10758983     0.19100
C4289       C  0.90405965  0.80884136  0.06104485    -0.06700
C4290       C  0.88784476  0.78819604  0.07040919    -0.17900
C4291       C  0.85571206  0.78890104  0.07122939     0.10500
C4292       C  0.83912323  0.80995160  0.06203207    -0.06700
C4293       C  0.85529530  0.83057747  0.05263110    -0.17900
C4294       C  0.88747626  0.82994887  0.05186770     0.10500
S4295       S  0.83741251  0.76374538  0.08494971    -0.32900
S4296       S  0.90592146  0.85554998  0.03842533    -0.32900
H4297       H  0.92912423  0.83464620  0.03426683     0.28500
H4298       H  0.81497861  0.78519473  0.08949277     0.28500
H4299       H  0.90033434  0.77207996  0.07757128     0.19100
H4300       H  0.84273025  0.84664108  0.04544928     0.19100
C4301       C  0.58918954  0.80706483  0.06469410    -0.06700
C4302       C  0.60476024  0.83159758  0.07178700    -0.17900
C4303       C  0.63696682  0.83259697  0.07235890     0.10500
C4304       C  0.65424633  0.80994150  0.06454633    -0.06700
C4305       C  0.63870364  0.78525178  0.05768615    -0.17900
C4306       C  0.60659592  0.78302801  0.05800884     0.10500
S4307       S  0.65428936  0.86219325  0.08402806    -0.32900
S4308       S  0.58881346  0.74935640  0.04962103    -0.32900
H4309       H  0.61588743  0.73416933  0.04509823     0.28500
H4310       H  0.67727409  0.84301635  0.09018602     0.28500
H4311       H  0.59177961  0.84953329  0.07743799     0.19100
H4312       H  0.65184999  0.76756647  0.05197533     0.19100
C4313       C  0.49830616  0.81404284  0.98388423    -0.06700
C4314       C  0.51695296  0.79261681  0.99158808    -0.17900
C4315       C  0.51875895  0.79178561  0.00770512     0.10500
C4316       C  0.50099751  0.81228136  0.01667167    -0.06700
C4317       C  0.98255665  0.83452025  0.00862139    -0.17900
C4318       C  0.98084589  0.83510173  0.99249157     0.10500
S4319       S  0.54568300  0.76535779  0.01611424    -0.32900
S4320       S  0.95436358  0.86175984  0.98407129    -0.32900
H4321       H  0.94366696  0.84108998  0.97284286     0.28500
H4322       H  0.55551029  0.78640071  0.02737158     0.28500
H4323       H  0.53083820  0.77670513  0.98496914     0.19100
H4324       H  0.96896297  0.85078809  0.01517363     0.19100
C4325       C  0.49366175  0.79829266  0.14277593    -0.06700
C4326       C  0.97686332  0.77872525  0.13336902    -0.17900
C4327       C  0.97560608  0.78092185  0.11729374     0.10500
C4328       C  0.49195342  0.80238147  0.10992859    -0.06700
C4329       C  0.50496742  0.82601860  0.11889230    -0.17900
C4330       C  0.50583405  0.82443467  0.13512545     0.10500
S4331       S  0.95015106  0.75483491  0.10742039    -0.32900
S4332       S  0.52420643  0.85514174  0.14571723    -0.32900
H4333       H  0.53046427  0.87433808  0.13308632     0.28500
H4334       H  0.93979763  0.77698513  0.09685117     0.28500
H4335       H  0.96353462  0.76095947  0.13904150     0.19100
H4336       H  0.51520848  0.84553880  0.11310223     0.19100
C4337       C  0.89964683  0.93380741  0.06206787    -0.09900
C4338       C  0.88583587  0.45897299  0.05217204    -0.17900
C4339       C  0.85371984  0.45920262  0.05097415     0.10500
C4340       C  0.83467414  0.93586852  0.06108271    -0.06700
C4341       C  0.84983624  0.91470850  0.07055291    -0.17900
C4342       C  0.88191906  0.91332376  0.07110535     0.10500
S4343       S  0.83677399  0.48347747  0.03645521    -0.32900
S4344       S  0.89828339  0.88669285  0.08457679    -0.32900
H4345       H  0.91510820  0.87118864  0.07334325     0.28500
H4346       H  0.81326736  0.46263761  0.03248664     0.28500
H4347       H  0.89916972  0.47401672  0.04479019     0.19100
H4348       H  0.83655895  0.89947361  0.07785482     0.19100
C4349       C  0.58483114  0.94087135  0.06331649    -0.06700
C4350       C  0.60029849  0.91648172  0.05621181    -0.17900
C4351       C  0.63229670  0.91627109  0.05498047     0.10500
C4352       C  0.64978459  0.94015638  0.06171230    -0.06700
C4353       C  0.63589765  0.46759659  0.06995826    -0.17900
C4354       C  0.60372490  0.46820497  0.07118751     0.10500
S4355       S  0.64901478  0.88608255  0.04365835    -0.32900
S4356       S  0.58685093  0.49917844  0.08202971    -0.32900
H4357       H  0.56426661  0.48079170  0.08911073     0.28500
H4358       H  0.67097407  0.90543588  0.03677479     0.28500
H4359       H  0.58727613  0.89789627  0.05102155     0.19100
H4360       H  0.64922224  0.48580244  0.07525125     0.19100
C4361       C  0.49428230  0.93235698  0.98355029    -0.06700
C4362       C  0.51172733  0.41231556  0.99293079    -0.17900
C4363       C  0.51324520  0.41336781  0.00910910     0.10500
C4364       C  0.99437951  0.43371830  0.01702447    -0.06700
C4365       C  0.97473009  0.95210633  0.00795073    -0.17900
C4366       C  0.97400302  0.95196541  0.99182652     0.10500
S4367       S  0.54108050  0.38898189  0.01846226    -0.32900
S4368       S  0.94615103  0.97649876  0.98256864    -0.32900
H4369       H  0.93871238  0.95541891  0.97088364     0.28500
H4370       H  0.54931685  0.41051602  0.02978818     0.28500
H4371       H  0.52672798  0.39669756  0.98679391     0.19100
H4372       H  0.95938570  0.96740927  0.01408879     0.19100
C4373       C  0.49628070  0.95415290  0.14199864    -0.06700
C4374       C  0.98496825  0.92778177  0.13578399    -0.17900
C4375       C  0.98315430  0.92266712  0.11986109     0.10500
C4376       C  0.99075937  0.45255003  0.11001831    -0.06700
C4377       C  0.49681505  0.48205352  0.11642902    -0.17900
C4378       C  0.49634740  0.48783108  0.13230990     0.10500
S4379       S  0.96540296  0.88744151  0.11373453    -0.32900
S4380       S  0.50382933  0.52680138  0.13816250    -0.32900
H4381       H  0.47492723  0.52989129  0.14531143     0.28500
H4382       H  0.94790688  0.90222672  0.10242581     0.28500
H4383       H  0.97627483  0.91025334  0.14350051     0.19100
H4384       H  0.50202295  0.50093635  0.10873316     0.19100
C4385       C  0.68229273  0.75111934  0.48307161    -0.06700
C4386       C  0.66192475  0.77142506  0.49051383    -0.17900
C4387       C  0.66242580  0.77521677  0.50661656     0.10500
C4388       C  0.68269569  0.75726211  0.51568068    -0.06700
C4389       C  0.70224620  0.73636803  0.50823662    -0.17900
C4390       C  0.70202284  0.73288815  0.49223409     0.10500
S4391       S  0.63850744  0.80494948  0.51468800    -0.32900
S4392       S  0.72610970  0.70328031  0.48425952    -0.32900
H4393       H  0.70429617  0.69437976  0.47317128     0.28500
H4394       H  0.65833284  0.81264111  0.52686443     0.28500
H4395       H  0.64639159  0.78537876  0.48373221     0.19100
H4396       H  0.71743432  0.72195985  0.51501265     0.19100
C4397       C  0.69113072  0.90643058  0.43628612    -0.06700
C4398       C  0.67049969  0.89035640  0.44571711    -0.17900
C4399       C  0.67027801  0.85826478  0.44617588     0.10500
C4400       C  0.69060585  0.84142858  0.43672119    -0.06700
C4401       C  0.71152641  0.85741513  0.42737696    -0.17900
C4402       C  0.71171830  0.88964822  0.42690184     0.10500
S4403       S  0.64483934  0.84016530  0.45978463    -0.32900
S4404       S  0.73725213  0.90786121  0.41337440    -0.32900
H4405       H  0.71618330  0.93088319  0.40910511     0.28500
H4406       H  0.66649578  0.81780489  0.46412765     0.28500
H4407       H  0.65489890  0.90294181  0.45311182     0.19100
H4408       H  0.72701694  0.84472081  0.41997586     0.19100
C4409       C  0.68465428  0.59161417  0.43920740    -0.06700
C4410       C  0.66553362  0.60693446  0.42870452    -0.17900
C4411       C  0.66529541  0.63903583  0.42776622     0.10500
C4412       C  0.68432363  0.65648404  0.43766453    -0.06700
C4413       C  0.70288252  0.64109111  0.44842161    -0.17900
C4414       C  0.70260560  0.60901865  0.44957889     0.10500
S4415       S  0.64181696  0.65608375  0.41299264    -0.32900
S4416       S  0.72418025  0.59177572  0.46506397    -0.32900
H4417       H  0.70276977  0.56812697  0.46786884     0.28500
H4418       H  0.66341429  0.67880299  0.40894432     0.28500
H4419       H  0.65149855  0.59376645  0.42076880     0.19100
H4420       H  0.71724005  0.65413977  0.45623117     0.19100
C4421       C  0.68550845  0.00562885  0.51694125    -0.06700
C4422       C  0.70353097  0.98327167  0.50954836    -0.17900
C4423       C  0.70232570  0.97898870  0.49355742     0.10500
C4424       C  0.68347299  0.99812177  0.48437103    -0.06700
C4425       C  0.66446339  0.51928234  0.49160504    -0.17900
C4426       C  0.66521476  0.52327498  0.50767215     0.10500
S4427       S  0.72429302  0.94763055  0.48564599    -0.32900
S4428       S  0.64007425  0.55189475  0.51580008    -0.32900
H4429       H  0.66094235  0.56157909  0.52719093     0.28500
H4430       H  0.70318784  0.94069581  0.47385432     0.28500
H4431       H  0.71805397  0.96829125  0.51636206     0.19100
H4432       H  0.64894764  0.53325922  0.48479762     0.19100
C4433       C  0.57188286  0.75209209  0.48450813    -0.06700
C4434       C  0.08034401  0.72615939  0.49127243    -0.17900
C4435       C  0.07979292  0.72269529  0.50738228     0.10500
C4436       C  0.57198364  0.74696412  0.51717302    -0.06700
C4437       C  0.56765457  0.77549422  0.50994244    -0.17900
C4438       C  0.56818235  0.77843547  0.49383428     0.10500
S4439       S  0.08812049  0.68508935  0.51485866    -0.32900
S4440       S  0.56457246  0.81657396  0.48599804    -0.32900
H4441       H  0.58065402  0.81085277  0.47230069     0.28500
H4442       H  0.07013525  0.68756879  0.52820526     0.28500
H4443       H  0.08638983  0.70663237  0.48417186     0.19100
H4444       H  0.56443100  0.79582409  0.51693144     0.19100
C4445       C  0.05910932  0.91187117  0.43508478    -0.06700
C4446       C  0.03479797  0.89603493  0.44216760    -0.17900
C4447       C  0.03436575  0.86391921  0.44309709     0.10500
C4448       C  0.05916872  0.84668303  0.43691449    -0.06700
C4449       C  0.58469066  0.86140220  0.43043840    -0.17900
C4450       C  0.58429423  0.89344271  0.42896341     0.10500
S4451       S  0.00129067  0.84711463  0.45241473    -0.32900
S4452       S  0.61390868  0.91061470  0.41725138    -0.32900
H4453       H  0.59402076  0.93168830  0.41003015     0.28500
H4454       H  0.01762745  0.82435054  0.46031652     0.28500
H4455       H  0.01609208  0.90882566  0.44731921     0.19100
H4456       H  0.60326340  0.84869276  0.42510802     0.19100
C4457       C  0.06738099  0.59682895  0.43861310    -0.06700
C4458       C  0.04533241  0.61233511  0.42973816    -0.17900
C4459       C  0.04496230  0.64434747  0.42881074     0.10500
C4460       C  0.06659690  0.66165799  0.43730471    -0.06700
C4461       C  0.58793542  0.64498472  0.44638468    -0.17900
C4462       C  0.58802038  0.61285653  0.44739687     0.10500
S4463       S  0.01723547  0.66161216  0.41600423    -0.32900
S4464       S  0.61529985  0.59543002  0.46039334    -0.32900
H4465       H  0.59573396  0.57151360  0.46517433     0.28500
H4466       H  0.03704315  0.68503692  0.41086397     0.28500
H4467       H  0.02859900  0.59935430  0.42313038     0.19100
H4468       H  0.60467947  0.65803274  0.45294754     0.19100
C4469       C  0.56332787  0.00239503  0.48287237    -0.06700
C4470       C  0.59406473  0.48342523  0.49104286    -0.17900
C4471       C  0.59585943  0.48017583  0.50710448     0.10500
C4472       C  0.56700705  0.99646958  0.51551286    -0.06700
C4473       C  0.04269064  0.01389547  0.50842809    -0.17900
C4474       C  0.04106796  0.01760158  0.49239851     0.10500
S4475       S  0.62412072  0.45309367  0.51377106    -0.32900
S4476       S  0.01090730  0.04190819  0.48498452    -0.32900
H4477       H  0.04258424  0.55734810  0.47438089     0.28500
H4478       H  0.63348045  0.46920297  0.52675735     0.28500
H4479       H  0.61004363  0.47074203  0.48389554     0.19100
H4480       H  0.02536992  0.02489023  0.51549004     0.19100
C4481       C  0.73822848  0.77568272  0.23335608    -0.06700
C4482       C  0.71563791  0.75454081  0.23810372    -0.17900
C4483       C  0.70978883  0.74881131  0.25373731     0.10500
C4484       C  0.72679461  0.76455687  0.26518362    -0.06700
C4485       C  0.74952801  0.78562447  0.26042325    -0.17900
C4486       C  0.75541231  0.79130622  0.24475765     0.10500
S4487       S  0.68107819  0.72028478  0.25826712    -0.32900
S4488       S  0.78577699  0.81800299  0.24008731    -0.32900
H4489       H  0.79600816  0.80224218  0.22694385     0.28500
H4490       H  0.69753867  0.70744190  0.27063859     0.28500
H4491       H  0.70232705  0.74229106  0.22950928     0.19100
H4492       H  0.76283667  0.79789663  0.26900620     0.19100
C4493       C  0.69309036  0.74783957  0.38982526    -0.06700
C4494       C  0.71562409  0.72953970  0.38271452    -0.17900
C4495       C  0.71861644  0.72827429  0.36662613     0.10500
C4496       C  0.69919625  0.74629807  0.35712527    -0.06700
C4497       C  0.67618112  0.76404746  0.36419579    -0.17900
C4498       C  0.67326160  0.76542343  0.38030130     0.10500
S4499       S  0.74682654  0.70212201  0.35891635    -0.32900
S4500       S  0.64524750  0.79183684  0.38795686    -0.32900
H4501       H  0.66428650  0.80248831  0.39992809     0.28500
H4502       H  0.72907846  0.69352942  0.34606662     0.28500
H4503       H  0.73071027  0.71552930  0.38975752     0.19100
H4504       H  0.66126124  0.77821460  0.35714244     0.19100
C4505       C  0.71087741  0.84615060  0.31337382    -0.06700
C4506       C  0.73020133  0.86177762  0.32370447    -0.17900
C4507       C  0.73039101  0.89400385  0.32443627     0.10500
C4508       C  0.71066612  0.91087258  0.31467110    -0.06700
C4509       C  0.69056047  0.89512284  0.30481217    -0.17900
C4510       C  0.69121756  0.86322038  0.30363762     0.10500
S4511       S  0.75428775  0.91317207  0.33849866    -0.32900
S4512       S  0.66822309  0.84605144  0.28863717    -0.32900
H4513       H  0.69123721  0.82528677  0.28400230     0.28500
H4514       H  0.76913341  0.88673280  0.34411402     0.28500
H4515       H  0.74489761  0.84862385  0.33134278     0.19100
H4516       H  0.67499440  0.90783748  0.29741660     0.19100
C4517       C  0.71059613  0.59638626  0.30888188    -0.06700
C4518       C  0.73839949  0.61174910  0.30576411    -0.17900
C4519       C  0.73992012  0.64383302  0.30482423     0.10500
C4520       C  0.71322939  0.66157229  0.30766305    -0.06700
C4521       C  0.68530988  0.64621280  0.31050684    -0.17900
C4522       C  0.68353829  0.61405086  0.31109247     0.10500
S4523       S  0.77636419  0.66035413  0.29935476    -0.32900
S4524       S  0.64676639  0.59652137  0.31553653    -0.32900
H4525       H  0.62872889  0.62329933  0.31470822     0.28500
H4526       H  0.76327757  0.68133999  0.28890686     0.28500
H4527       H  0.75918290  0.59859810  0.30369421     0.19100
H4528       H  0.66475787  0.65955703  0.31273011     0.19100
C4529       C  0.72449082  0.49359612  0.26577980    -0.06700
C4530       C  0.74333271  0.51409784  0.25756539    -0.17900
C4531       C  0.74941256  0.50993550  0.24179953     0.10500
C4532       C  0.73627940  0.48472585  0.23378870    -0.06700
C4533       C  0.71526458  0.96332283  0.24186921    -0.17900
C4534       C  0.70841742  0.96878205  0.25742785     0.10500
S4535       S  0.77516098  0.53696629  0.23278698    -0.32900
S4536       S  0.67940511  0.94495187  0.26611509    -0.32900
H4537       H  0.69713310  0.93984506  0.27937027     0.28500
H4538       H  0.79046286  0.51477107  0.22386469     0.28500
H4539       H  0.75354152  0.53343854  0.26349423     0.19100
H4540       H  0.70199932  0.94623282  0.23568446     0.19100
C4541       C  0.70026046  0.50732485  0.35813300    -0.06700
C4542       C  0.72421950  0.99640328  0.36706798    -0.17900
C4543       C  0.72297386  0.99441839  0.38320231     0.10500
C4544       C  0.69536155  0.00195554  0.39105727    -0.06700
C4545       C  0.67112020  0.51439641  0.38202968    -0.17900
C4546       C  0.67356513  0.51780100  0.36593014     0.10500
S4547       S  0.75678475  0.98087268  0.39330776    -0.32900
S4548       S  0.64280155  0.53772066  0.35624430    -0.32900
H4549       H  0.66246931  0.55462631  0.34656015     0.28500
H4550       H  0.77738181  0.98213714  0.38085941     0.28500
H4551       H  0.74513068  0.98953857  0.36126677     0.19100
H4552       H  0.65058742  0.52265339  0.38774371     0.19100
C4553       C  0.52051506  0.75762262  0.26654557    -0.06700
C4554       C  0.53545715  0.78210364  0.25911940    -0.17900
C4555       C  0.53062899  0.78834252  0.24344890     0.10500
C4556       C  0.50993351  0.77002306  0.23476796    -0.06700
C4557       C  0.99260505  0.74826353  0.24173035    -0.17900
C4558       C  0.99729735  0.74192979  0.25742874     0.10500
S4559       S  0.55268713  0.81922758  0.23511465    -0.32900
S4560       S  0.97589826  0.71052388  0.26570435    -0.32900
H4561       H  0.99965837  0.70076635  0.27557422     0.28500
H4562       H  0.56005834  0.80295071  0.22165072     0.28500
H4563       H  0.55095009  0.79669741  0.26562440     0.19100
H4564       H  0.97584351  0.73486752  0.23538209     0.19100
C4565       C  0.54478691  0.75076353  0.35896947    -0.06700
C4566       C  0.57092947  0.73687078  0.36554341    -0.17900
C4567       C  0.57552145  0.73612504  0.38156901     0.10500
C4568       C  0.55408769  0.75045690  0.39153391    -0.06700
C4569       C  0.02644253  0.76434220  0.38460324    -0.17900
C4570       C  0.02145137  0.76501270  0.36863257     0.10500
S4571       S  0.60810170  0.71468726  0.38853286    -0.32900
S4572       S  0.98797701  0.78554320  0.36195970    -0.32900
H4573       H  0.00370207  0.80080658  0.35004934     0.28500
H4574       H  0.59207017  0.70134279  0.40089590     0.28500
H4575       H  0.58748571  0.72556330  0.35816853     0.19100
H4576       H  0.00981393  0.77536258  0.39204554     0.19100
C4577       C  0.02829869  0.84450442  0.31445282    -0.06700
C4578       C  0.00084144  0.85942601  0.31023626    -0.17900
C4579       C  0.99900080  0.89150347  0.30947526     0.10500
C4580       C  0.02503837  0.90945589  0.31335943    -0.06700
C4581       C  0.55400459  0.89317081  0.31793401    -0.17900
C4582       C  0.55590241  0.86120286  0.31880730     0.10500
S4583       S  0.96339255  0.90772106  0.30257584    -0.32900
S4584       S  0.59157473  0.84534332  0.32587112    -0.32900
H4585       H  0.57715919  0.82372723  0.33552824     0.28500
H4586       H  0.97766610  0.92887133  0.29263300     0.28500
H4587       H  0.98089390  0.84599477  0.30691011     0.19100
H4588       H  0.57403217  0.90664395  0.32111003     0.19100
C4589       C  0.03299340  0.59444697  0.31189375    -0.06700
C4590       C  0.05495142  0.61022247  0.30302722    -0.17900
C4591       C  0.05496120  0.64236769  0.30201815     0.10500
C4592       C  0.03286261  0.65953938  0.31030961    -0.06700
C4593       C  0.51315085  0.64265352  0.32039649    -0.17900
C4594       C  0.51295560  0.61061332  0.32142266     0.10500
S4595       S  0.08279854  0.65976576  0.28936052    -0.32900
S4596       S  0.48651486  0.59365067  0.33496257    -0.32900
H4597       H  0.50796595  0.57225026  0.34065566     0.28500
H4598       H  0.06206132  0.68144177  0.28327201     0.28500
H4599       H  0.07176520  0.59739052  0.29645862     0.19100
H4600       H  0.49695895  0.65557925  0.32730054     0.19100
C4601       C  0.51120866  0.99098588  0.26606529    -0.06700
C4602       C  0.99204863  0.50910498  0.25979838    -0.17900
C4603       C  0.98482616  0.50494887  0.24415312     0.10500
C4604       C  0.49854849  0.98146262  0.23423743    -0.06700
C4605       C  0.51820062  0.96167113  0.24240983    -0.17900
C4606       C  0.52442791  0.96596970  0.25808157     0.10500
S4607       S  0.95278082  0.52635451  0.23647343    -0.32900
S4608       S  0.54860336  0.93792032  0.26737498    -0.32900
H4609       H  0.53048809  0.93623596  0.28069379     0.28500
H4610       H  0.94299079  0.50332595  0.22622624     0.28500
H4611       H  0.97857424  0.52512593  0.26652573     0.19100
H4612       H  0.52913356  0.94269265  0.23649758     0.19100
C4613       C  0.55270767  0.00576004  0.38991301    -0.06700
C4614       C  0.57287925  0.98823687  0.38082446    -0.17900
C4615       C  0.56902046  0.98610975  0.36478372     0.10500
C4616       C  0.54505802  0.00268977  0.35743763    -0.06700
C4617       C  0.02932366  0.52079752  0.36759488    -0.17900
C4618       C  0.03327762  0.52317970  0.38354601     0.10500
S4619       S  0.59393320  0.96006748  0.35457757    -0.32900
S4620       S  0.00638568  0.54713963  0.39376564    -0.32900
H4621       H  0.02879437  0.55959471  0.40364356     0.28500
H4622       H  0.57069961  0.94868433  0.34483141     0.28500
H4623       H  0.59087188  0.97494799  0.38631989     0.19100
H4624       H  0.01007092  0.53254575  0.36227742     0.19100
C4625       C  0.75713710  0.80106700  0.85672698    -0.06700
C4626       C  0.73900189  0.82484482  0.86285392    -0.17900
C4627       C  0.73572837  0.82889566  0.87879555     0.10500
C4628       C  0.75132063  0.80915368  0.88912335    -0.06700
C4629       C  0.77016974  0.78596048  0.88297844    -0.17900
C4630       C  0.77344000  0.78182470  0.86701068     0.10500
S4631       S  0.70925959  0.85787897  0.88519399    -0.32900
S4632       S  0.79955629  0.75277267  0.85995496    -0.32900
H4633       H  0.81016045  0.74251492  0.87434896     0.28500
H4634       H  0.69625473  0.83862088  0.89640343     0.28500
H4635       H  0.72612798  0.83967168  0.85514381     0.19100
H4636       H  0.78265118  0.77108139  0.89080014     0.19100
C4637       C  0.75348626  0.44370027  0.85680184    -0.06700
C4638       C  0.73888193  0.46686247  0.86533804    -0.17900
C4639       C  0.73454027  0.46443166  0.88121613     0.10500
C4640       C  0.74595200  0.43863028  0.88933219    -0.06700
C4641       C  0.76154384  0.91866274  0.88098185    -0.17900
C4642       C  0.76504396  0.92051506  0.86487228     0.10500
S4643       S  0.71260381  0.49448445  0.89022870    -0.32900
S4644       S  0.78430773  0.88918872  0.85540075    -0.32900
H4645       H  0.80141032  0.90808100  0.84542918     0.28500
H4646       H  0.69594260  0.47380243  0.89942950     0.28500
H4647       H  0.72979992  0.48690461  0.85950410     0.19100
H4648       H  0.76996975  0.89846763  0.88692283     0.19100
C4649       C  0.91056158  0.78633190  0.80954112    -0.06700
C4650       C  0.89474715  0.76163073  0.80281306    -0.17900
C4651       C  0.86248273  0.76141472  0.80179278     0.10500
C4652       C  0.84551702  0.78643071  0.80777669    -0.06700
C4653       C  0.86141810  0.81144272  0.81416948    -0.17900
C4654       C  0.89352740  0.81147454  0.81535223     0.10500
S4655       S  0.84356062  0.72990816  0.79205879    -0.32900
S4656       S  0.91104118  0.84338991  0.82530252    -0.32900
H4657       H  0.93222912  0.82517996  0.83348777     0.28500
H4658       H  0.86989005  0.71163035  0.78988219     0.28500
H4659       H  0.90782793  0.74269726  0.79807912     0.19100
H4660       H  0.84865084  0.83059709  0.81893523     0.19100
C4661       C  0.66070814  0.78617387  0.81390175    -0.06700
C4662       C  0.64470798  0.80725424  0.80471900    -0.17900
C4663       C  0.61268207  0.80699286  0.80389385     0.10500
C4664       C  0.59574522  0.78563914  0.81278171    -0.06700
C4665       C  0.61163852  0.76473066  0.82214219    -0.17900
C4666       C  0.64392894  0.76485004  0.82290861     0.10500
S4667       S  0.59515693  0.83320989  0.79046914    -0.32900
S4668       S  0.66307978  0.73881119  0.83599717    -0.32900
H4669       H  0.63642493  0.72526721  0.84220106     0.28500
H4670       H  0.57368334  0.81152620  0.78522558     0.28500
H4671       H  0.65732144  0.82341921  0.79759736     0.19100
H4672       H  0.59861354  0.74864540  0.82909437     0.19100
C4673       C  0.50046480  0.79731762  0.85791487    -0.06700
C4674       C  0.98587678  0.82180728  0.86426576    -0.17900
C4675       C  0.98325759  0.82562058  0.88030411     0.10500
C4676       C  0.49635963  0.80491727  0.89052665    -0.06700
C4677       C  0.51125136  0.77938390  0.88403896    -0.17900
C4678       C  0.51382057  0.77556184  0.86807783     0.10500
S4679       S  0.96215081  0.85855646  0.88706063    -0.32900
S4680       S  0.53598216  0.74307713  0.86156421    -0.32900
H4681       H  0.55175588  0.75970777  0.85014005     0.28500
H4682       H  0.94703328  0.84267251  0.89895571     0.28500
H4683       H  0.97597093  0.83905996  0.85675209     0.19100
H4684       H  0.52190884  0.76252922  0.89150602     0.19100
C4685       C  0.84717199  0.95970336  0.80871682    -0.06700
C4686       C  0.86096855  0.48332925  0.81538520    -0.17900
C4687       C  0.89301915  0.48377824  0.81682776     0.10500
C4688       C  0.91069375  0.45951209  0.81057659    -0.06700
C4689       C  0.89691491  0.93592391  0.80369811    -0.17900
C4690       C  0.86476593  0.93477192  0.80296658     0.10500
S4691       S  0.90939745  0.51484026  0.82783235    -0.32900
S4692       S  0.84831390  0.90073185  0.79444875    -0.32900
H4693       H  0.82639143  0.91666380  0.78574499     0.28500
H4694       H  0.92850564  0.49550889  0.83664290     0.28500
H4695       H  0.84789961  0.50201671  0.82040222     0.19100
H4696       H  0.90994066  0.91678580  0.79909003     0.19100
C4697       C  0.59586253  0.45692969  0.81299229    -0.06700
C4698       C  0.61302930  0.97839226  0.82191401    -0.17900
C4699       C  0.64514897  0.97885318  0.82251534     0.10500
C4700       C  0.66216025  0.95987478  0.81247297    -0.06700
C4701       C  0.64469505  0.43862436  0.80310273    -0.17900
C4702       C  0.61260035  0.43870524  0.80248862     0.10500
S4703       S  0.66281796  0.00292721  0.83689454    -0.32900
S4704       S  0.59464989  0.41688612  0.78730113    -0.32900
H4705       H  0.57296696  0.43973905  0.78361788     0.28500
H4706       H  0.68530115  0.98119679  0.84106653     0.28500
H4707       H  0.60017052  0.99271573  0.82979372     0.19100
H4708       H  0.65731654  0.42494567  0.79483905     0.19100
C4709       C  0.49664968  0.93932067  0.89008688    -0.06700
C4710       C  0.01365251  0.91850792  0.88136110    -0.17900
C4711       C  0.01512612  0.92048802  0.86518303     0.10500
C4712       C  0.50005552  0.94483125  0.85726656    -0.06700
C4713       C  0.48455000  0.46536730  0.86729789    -0.17900
C4714       C  0.48274110  0.46311051  0.88335089     0.10500
S4715       S  0.03755716  0.89192838  0.85532005    -0.32900
S4716       S  0.46038524  0.49210270  0.89300748    -0.32900
H4717       H  0.44588897  0.47108694  0.90291918     0.28500
H4718       H  0.01219110  0.88085479  0.84691580     0.28500
H4719       H  0.02558509  0.89994060  0.88713488     0.19100
H4720       H  0.47348073  0.48466717  0.86168400     0.19100
C4721       C  0.73343522  0.76305639  0.73292177    -0.06700
C4722       C  0.71329359  0.74963686  0.74363608    -0.17900
C4723       C  0.71703174  0.75420102  0.75952391     0.10500
C4724       C  0.74181472  0.77221087  0.76508965    -0.06700
C4725       C  0.76165446  0.78606350  0.75442146    -0.17900
C4726       C  0.75762841  0.78197869  0.73852362     0.10500
S4727       S  0.68847316  0.73771065  0.77207898    -0.32900
S4728       S  0.78311954  0.80305837  0.72603930    -0.32900
H4729       H  0.75957308  0.81223628  0.71592553     0.28500
H4730       H  0.68726279  0.76313684  0.78201291     0.28500
H4731       H  0.69428714  0.73562032  0.73960532     0.19100
H4732       H  0.78035107  0.80043730  0.75850753     0.19100
C4733       C  0.70631830  0.75202075  0.64102097    -0.06700
C4734       C  0.68162704  0.73610188  0.63422622    -0.17900
C4735       C  0.67708213  0.73614460  0.61820179     0.10500
C4736       C  0.69679245  0.75357658  0.60857260    -0.06700
C4737       C  0.72134969  0.76958206  0.61542630    -0.17900
C4738       C  0.72612651  0.76926605  0.63137288     0.10500
S4739       S  0.64715910  0.71168117  0.61076637    -0.32900
S4740       S  0.75694485  0.79288936  0.63869913    -0.32900
H4741       H  0.73971862  0.80445069  0.65109298     0.28500
H4742       H  0.66441684  0.70143787  0.59809509     0.28500
H4743       H  0.66639359  0.72256863  0.64139831     0.19100
H4744       H  0.73664270  0.78318391  0.60831646     0.19100
C4745       C  0.71996506  0.90930169  0.68627171    -0.06700
C4746       C  0.69337774  0.89390117  0.68124623    -0.17900
C4747       C  0.69254115  0.86183578  0.68013941     0.10500
C4748       C  0.71869100  0.84448183  0.68451026    -0.06700
C4749       C  0.74534679  0.85993791  0.68931888    -0.17900
C4750       C  0.74612988  0.89186455  0.69052703     0.10500
S4751       S  0.65800303  0.84477033  0.67238789    -0.32900
S4752       S  0.78044174  0.90849082  0.69871602    -0.32900
H4753       H  0.76404310  0.92880693  0.70818695     0.28500
H4754       H  0.67369962  0.82271618  0.66354183     0.28500
H4755       H  0.67327567  0.90699241  0.67776571     0.19100
H4756       H  0.76547303  0.84695713  0.69285832     0.19100
C4757       C  0.71970230  0.65947388  0.68920893    -0.06700
C4758       C  0.69354680  0.64444461  0.69514417    -0.17900
C4759       C  0.69150659  0.61220368  0.69577344     0.10500
C4760       C  0.71641966  0.59420635  0.69037496    -0.06700
C4761       C  0.74273481  0.60932213  0.68474438    -0.17900
C4762       C  0.74451701  0.64132245  0.68387639     0.10500
S4763       S  0.65732628  0.59488028  0.70392521    -0.32900
S4764       S  0.77863364  0.65703567  0.67508321    -0.32900
H4765       H  0.76201466  0.67557586  0.66473153     0.28500
H4766       H  0.64040217  0.62208789  0.70603660     0.28500
H4767       H  0.67456779  0.65808638  0.69940781     0.19100
H4768       H  0.76199012  0.59606215  0.68043884     0.19100
C4769       C  0.74425322  0.47715170  0.76536231    -0.06700
C4770       C  0.72027408  0.49713215  0.76109112    -0.17900
C4771       C  0.71503160  0.50510020  0.74564926     0.10500
C4772       C  0.73385807  0.49256202  0.73396665    -0.06700
C4773       C  0.75946820  0.97094264  0.73808017    -0.17900
C4774       C  0.76470423  0.96343486  0.75354088     0.10500
S4775       S  0.68481728  0.53239602  0.74171813    -0.32900
S4776       S  0.79593411  0.93774278  0.75779034    -0.32900
H4777       H  0.80677897  0.95576829  0.77007805     0.28500
H4778       H  0.70057319  0.54737884  0.72973069     0.28500
H4779       H  0.70547697  0.50669004  0.76988223     0.19100
H4780       H  0.77375616  0.96043822  0.72937713     0.19100
C4781       C  0.69783724  0.00458758  0.60988116    -0.06700
C4782       C  0.67215729  0.51757701  0.61916524    -0.17900
C4783       C  0.67518863  0.51829946  0.63529974     0.10500
C4784       C  0.70551070  0.00629126  0.64234962    -0.06700
C4785       C  0.72671043  0.99090041  0.63294685    -0.17900
C4786       C  0.72290017  0.98936946  0.61699723     0.10500
S4787       S  0.64606111  0.53862497  0.64595718    -0.32900
S4788       S  0.74998686  0.96597581  0.60655330    -0.32900
H4789       H  0.72764549  0.95305293  0.59675100     0.28500
H4790       H  0.66691039  0.55267486  0.65616292     0.28500
H4791       H  0.65260356  0.52881783  0.61386915     0.19100
H4792       H  0.74601039  0.97899878  0.63812095     0.19100
C4793       C  0.51152650  0.77088406  0.76553291    -0.06700
C4794       C  0.53368179  0.78808330  0.75748084    -0.17900
C4795       C  0.54107925  0.78167038  0.74207499     0.10500
C4796       C  0.52592217  0.75752574  0.73417423    -0.06700
C4797       C  0.00239567  0.74248329  0.74161435    -0.17900
C4798       C  0.99494619  0.74877397  0.75705530     0.10500
S4799       S  0.56929358  0.80598958  0.73298666    -0.32900
S4800       S  0.96333890  0.72769956  0.76540478    -0.32900
H4801       H  0.95288944  0.75197155  0.77470898     0.28500
H4802       H  0.55275438  0.80868674  0.71916539     0.28500
H4803       H  0.54557224  0.80663968  0.76322806     0.19100
H4804       H  0.98953751  0.72493968  0.73551599     0.19100
C4805       C  0.55760124  0.73733639  0.64288874    -0.06700
C4806       C  0.58024302  0.75650276  0.63639311    -0.17900
C4807       C  0.58353756  0.75947674  0.62035213     0.10500
C4808       C  0.56450123  0.74207561  0.61036055    -0.06700
C4809       C  0.04499977  0.72099971  0.61700076    -0.17900
C4810       C  0.04204270  0.71812983  0.63301882     0.10500
S4811       S  0.61100821  0.78739272  0.61348680    -0.32900
S4812       S  0.01558238  0.68952497  0.64014601    -0.32900
H4813       H  0.03299834  0.68207757  0.65328210     0.28500
H4814       H  0.59321613  0.79724862  0.60091778     0.28500
H4815       H  0.59448794  0.77048680  0.64386265     0.19100
H4816       H  0.03092532  0.70656852  0.60966044     0.19100
C4817       C  0.54621792  0.90003402  0.68541919    -0.06700
C4818       C  0.02261620  0.88478296  0.67794041    -0.17900
C4819       C  0.02169664  0.85269891  0.67713104     0.10500
C4820       C  0.04503490  0.83527635  0.68437397    -0.06700
C4821       C  0.56803803  0.85043062  0.69205801    -0.17900
C4822       C  0.56941340  0.88238259  0.69269430     0.10500
S4823       S  0.99098031  0.83569433  0.66607843    -0.32900
S4824       S  0.60054116  0.89867881  0.70375813    -0.32900
H4825       H  0.58123476  0.91817451  0.71231168     0.28500
H4826       H  0.01000530  0.81367461  0.65901719     0.28500
H4827       H  0.00440298  0.89780299  0.67241255     0.19100
H4828       H  0.58571324  0.83738252  0.69798551     0.19100
C4829       C  0.54280031  0.58553387  0.69201675    -0.06700
C4830       C  0.56829621  0.60152070  0.68612411    -0.17900
C4831       C  0.56880203  0.63365307  0.68549197     0.10500
C4832       C  0.04469797  0.65065171  0.69177768    -0.06700
C4833       C  0.01704498  0.63491427  0.69473616    -0.17900
C4834       C  0.01583171  0.60274565  0.69528126     0.10500
S4835       S  0.60148063  0.65129508  0.67622397    -0.32900
S4836       S  0.97955112  0.58563958  0.70056938    -0.32900
H4837       H  0.99283380  0.56418527  0.71071265     0.28500
H4838       H  0.58378368  0.67262621  0.66786721     0.28500
H4839       H  0.58753531  0.58886090  0.68137196     0.19100
H4840       H  0.99619066  0.64779039  0.69696612     0.19100
C4841       C  0.02681504  0.48239624  0.73448285    -0.06700
C4842       C  0.53917596  0.50338880  0.74552977    -0.17900
C4843       C  0.53370899  0.49951147  0.76135324     0.10500
C4844       C  0.51770268  0.97415489  0.76529923    -0.06700
C4845       C  0.00693655  0.95272905  0.75457298    -0.17900
C4846       C  0.01328149  0.95592123  0.73880497     0.10500
S4847       S  0.55286867  0.52584862  0.77416349    -0.32900
S4848       S  0.00100421  0.92535637  0.72623986    -0.32900
H4849       H  0.02740304  0.92640171  0.71694953     0.28500
H4850       H  0.56331614  0.50269566  0.78418483     0.28500
H4851       H  0.55343827  0.52232876  0.74168848     0.19100
H4852       H  0.99424916  0.93274102  0.75843315     0.19100
C4853       C  0.56347865  0.99805727  0.60878774    -0.06700
C4854       C  0.58494936  0.98161836  0.61768173    -0.17900
C4855       C  0.58268646  0.98031625  0.63381901     0.10500
C4856       C  0.05888962  0.49650561  0.64291915    -0.06700
C4857       C  0.03693394  0.51168347  0.63378146    -0.17900
C4858       C  0.03946105  0.51307228  0.61771197     0.10500
S4859       S  0.60942864  0.95571047  0.64378949    -0.32900
S4860       S  0.01090022  0.53548259  0.60768236    -0.32900
H4861       H  0.03204916  0.54888925  0.59742090     0.28500
H4862       H  0.58718956  0.94313388  0.65373160     0.28500
H4863       H  0.60279835  0.96851866  0.61199083     0.19100
H4864       H  0.01771392  0.52315822  0.63924492     0.19100
loop_ 
_geom_bond_atom_site_label_1 
_geom_bond_atom_site_label_2 
_geom_bond_distance 
_geom_bond_site_symmetry_2 
_ccdc_geom_bond_type 
O1         V1225   1.918       .  S
O1         C3659   1.268       .  A
O2            V9   1.917       .  S
O2         C2444   1.268       .  A
O3            V9   1.896   1_545  S
O3           C13   1.264       .  A
O4         V1225   1.894       .  S
O4           C14   1.262       .  A
O5         V1226   1.901       .  S
O5         C2446   1.266       .  A
O6           V10   1.902   1_545  S
O6         C2445   1.265       .  A
O7         V1226   1.908       .  S
O7         C1228   1.267       .  A
O8           V10   1.908       .  S
O8           C11   1.265       .  A
V9         O1217   1.920       .  S
V9         O1220   1.891       .  S
V9         V2442   2.084       .  T
V10        O1221   1.897       .  S
V10        O1223   1.905       .  S
V10        V2441   2.084       .  T
C11        O3649   1.269       .  A
C11        C1193   1.493       .  S
C12        O2434   1.268       .  A
C12        O1223   1.266       .  A
C12        C1208   1.495       .  S
C13        O2438   1.266       .  A
C13        C1181   1.484       .  S
C14        O2437   1.265       .  A
C14        C1169   1.484       .  S
O15          V23   1.911       .  S
O15        C2457   1.266       .  A
O16          V23   1.907       .  S
O16        C2458   1.267       .  A
O17          V23   1.901       .  S
O17          C27   1.266       .  A
O18          V23   1.903       .  S
O18          C28   1.265       .  A
O19          V24   1.891       .  S
O19        C2460   1.263       .  A
O20          V24   1.900       .  S
O20        C2459   1.265       .  A
O21          V24   1.915       .  S
O21          C26   1.268       .  A
O22          V24   1.917       .  S
O22          C25   1.269       .  A
V23        V2456   2.084       .  T
V24        V2455   2.085       .  T
C25        O2447   1.266       .  A
C25        C1148   1.494       .  S
C26        O2448   1.267       .  A
C26        C1157   1.496       .  S
C27        O2452   1.264       .  A
C27        C1184   1.487       .  S
C28        O2451   1.264       .  A
C28        C1172   1.485       .  S
O29        V1253   1.904       .  S
O29        C1255   1.266       .  A
O30          V37   1.908       .  S
O30          C40   1.266       .  A
O31          V37   1.890       .  S
O31          C41   1.261       .  A
O32        V1253   1.896       .  S
O32          C42   1.265       .  A
O33        V1254   1.900       .  S
O33          C42   1.264       .  A
O34          V38   1.901       .  S
O34          C41   1.266       .  A
O35        V1254   1.907   1_565  S
O35        C1256   1.265       .  A
O36          V38   1.914       .  S
O36          C39   1.267       .  A
V37        O1245   1.904       .  S
V37        O1248   1.896       .  S
V37          V38   2.085       .  T
V38        O1249   1.904       .  S
V38        O1251   1.909       .  S
C39        O1245   1.267       .  A
C39        C1136   1.494       .  S
C40        O1251   1.267       .  A
C40        C2340   1.490       .  S
C41        C1097   1.480       .  S
C42        C1112   1.490       .  S
O43          V51   1.918       .  S
O43          C53   1.269       .  A
O44          V51   1.918       .  S
O44          C54   1.269       .  A
O45          V51   1.891       .  S
O45          C55   1.264       .  A
O46          V51   1.890       .  S
O46          C56   1.261       .  A
O47          V52   1.900       .  S
O47          C56   1.266       .  A
O48          V52   1.905       .  S
O48          C55   1.265       .  A
O49          V52   1.902       .  S
O49          C54   1.265       .  A
O50          V52   1.902       .  S
O50          C53   1.264       .  A
V51          V52   2.083       .  T
C53        C1073   1.494       .  S
C54        C1085   1.495       .  S
C55        C1109   1.490       .  S
C56        C1100   1.479       .  S
O57        V2497   1.913       .  S
O57        C3715   1.267       .  A
O58          V65   1.912       .  S
O58        C1284   1.268       .  A
O59          V65   1.892       .  S
O59          C69   1.263       .  A
O60        V2497   1.896       .  S
O60          C70   1.263       .  A
O61        V2498   1.898       .  S
O61        C1286   1.265       .  A
O62          V66   1.890       .  S
O62        C1285   1.262       .  A
O63        V2498   1.918       .  S
O63        C2500   1.268       .  A
O64          V66   1.915       .  S
O64          C67   1.269       .  A
V65        O2489   1.910       .  S
V65        O2492   1.895   1_455  S
V65        V1282   2.083       .  T
V66        O2493   1.897   1_455  S
V66        O2495   1.918       .  S
V66        V1281   2.084       .  T
C67        O3705   1.265       .  A
C67        C1196   1.497       .  S
C68        O1274   1.267       .  A
C68        O2495   1.268       .  A
C68        C1064   1.502   1_455  S
C69        O1278   1.262       .  A
C69        C1049   1.469       .  S
C70        O1277   1.265       .  A
C70        C1040   1.485       .  S
O71        V2511   1.916       .  S
O71        C2513   1.269       .  A
O72          V79   1.919       .  S
O72          C82   1.269       .  A
O73          V79   1.890       .  S
O73          C83   1.262       .  A
O74        V2511   1.894       .  S
O74          C84   1.263       .  A
O75        V2512   1.903       .  S
O75          C84   1.266       .  A
O76          V80   1.901       .  S
O76          C83   1.265       .  A
O77        V2512   1.905       .  S
O77        C2514   1.266       .  A
O78          V80   1.906       .  S
O78          C81   1.265       .  A
V79        O2503   1.918       .  S
V79        O2506   1.895   1_455  S
V79          V80   2.085       .  T
V80        O2507   1.901   1_455  S
V80        O2509   1.902       .  S
C81        O2503   1.270       .  A
C81        C1145   1.497       .  S
C82        O2509   1.265       .  A
C82        C1025   1.494       .  S
C83        C1016   1.474       .  S
C84        C1001   1.482       .  S
O85          V93   1.922       .  S
O85        C1311   1.269       .  A
O86          V93   1.921       .  S
O86        C1312   1.270       .  A
O87          V93   1.894       .  S
O87          C97   1.262       .  A
O88          V93   1.892       .  S
O88          C98   1.263       .  A
O89          V94   1.894       .  S
O89        C1314   1.263       .  A
O90          V94   1.899       .  S
O90        C1313   1.266       .  A
O91          V94   1.900       .  S
O91          C96   1.264       .  A
O92          V94   1.901       .  S
O92          C95   1.266       .  A
V93        V1310   2.084       .  T
V94        V1309   2.084       .  T
C95        O1301   1.270       .  A
C95         C989   1.501       .  S
C96        O1302   1.270       .  A
C96        C1121   1.493       .  S
C97        O1306   1.267       .  A
C97        C1037   1.488       .  S
C98        O1305   1.263       .  A
C98        C1052   1.472       .  S
O99         V107   1.906       .  S
O99         C109   1.266       .  A
O100        V107   1.910       .  S
O100        C110   1.266       .  A
O101        V107   1.902       .  S
O101        C111   1.265       .  A
O102        V107   1.895       .  S
O102        C112   1.263       .  A
O103        V108   1.891       .  S
O103        C112   1.264       .  A
O104        V108   1.898       .  S
O104        C111   1.265       .  A
O105        V108   1.910       .  S
O105        C110   1.267       .  A
O106        V108   1.913       .  S
O106        C109   1.267       .  A
V107        V108   2.084       .  T
C109        C977   1.496       .  S
C110       C1076   1.490       .  S
C111       C1004   1.485       .  S
C112       C1013   1.474       .  S
O113       V1337   1.905       .  S
O113       C3771   1.266       .  A
O114        V121   1.910       .  S
O114       C2556   1.266       .  A
O115        V121   1.898       .  S
O115        C125   1.264       .  A
O116       V1337   1.901       .  S
O116        C126   1.266       .  A
O117       V1338   1.901       .  S
O117       C2558   1.265       .  A
O118        V122   1.896       .  S
O118       C2557   1.263       .  A
O119       V1338   1.912   1_565  S
O119       C1340   1.268       .  A
O120        V122   1.913       .  S
O120        C123   1.267       .  A
V121       O1329   1.907       .  S
V121       O1332   1.897       .  S
V121       V2554   2.085       .  T
V122       O1333   1.903       .  S
V122       O1335   1.913       .  S
V122       V2553   2.085       .  T
C123       O3761   1.267       .  A
C123        C968   1.495       .  S
C124       O2546   1.266       .  A
C124       O1335   1.268       .  A
C124        C953   1.494       .  S
C125       O2550   1.263       .  A
C125        C932   1.478       .  S
C126       O2549   1.265       .  A
C126        C941   1.487       .  S
O127        V135   1.901       .  S
O127       C2569   1.265       .  A
O128        V135   1.904       .  S
O128       C2570   1.264       .  A
O129        V135   1.898       .  S
O129        C139   1.265       .  A
O130        V135   1.898       .  S
O130        C140   1.265       .  A
O131        V136   1.897       .  S
O131       C2572   1.263       .  A
O132        V136   1.906       .  S
O132       C2571   1.265       .  A
O133        V136   1.919       .  S
O133        C138   1.269       .  A
O134        V136   1.919       .  S
O134        C137   1.269       .  A
V135       V2568   2.084       .  T
V136       V2567   2.085       .  T
C137       O2559   1.265       .  A
C137        C917   1.497       .  S
C138       O2560   1.264       .  A
C138        C905   1.491       .  S
C139       O2564   1.265       .  A
C139        C944   1.486       .  S
C140       O2563   1.263       .  A
C140        C929   1.480       .  S
O141       V1365   1.909       .  S
O141       C1367   1.268       .  A
O142        V149   1.914       .  S
O142        C152   1.267   1_545  A
O143        V149   1.903       .  S
O143        C153   1.267       .  A
O144       V1365   1.903       .  S
O144        C154   1.265       .  A
O145       V1366   1.891       .  S
O145        C154   1.263       .  A
O146        V150   1.895       .  S
O146        C153   1.262       .  A
O147       V1366   1.918       .  S
O147       C1368   1.269       .  A
O148        V150   1.922       .  S
O148        C151   1.269       .  A
V149       O1357   1.904       .  S
V149       O1360   1.903   1_545  S
V149        V150   2.083       .  T
V150       O1361   1.890   1_545  S
V150       O1363   1.923   1_545  S
C151       O1357   1.267       .  A
C151        C893   1.505       .  S
C152       O1363   1.271       .  A
C152        C881   1.505       .  S
C153        C869   1.490       .  S
C154        C860   1.481       .  S
O155        V163   1.916       .  S
O155        C165   1.268       .  A
O156        V163   1.917       .  S
O156        C166   1.268       .  A
O157        V163   1.898       .  S
O157        C167   1.264       .  A
O158        V163   1.899       .  S
O158        C168   1.266       .  A
O159        V164   1.898       .  S
O159        C168   1.264       .  A
O160        V164   1.896       .  S
O160        C167   1.264       .  A
O161        V164   1.907       .  S
O161        C166   1.266       .  A
O162        V164   1.909       .  S
O162        C165   1.266       .  A
V163        V164   2.084       .  T
C165        C836   1.492       .  S
C166        C848   1.495       .  S
C167        C857   1.482       .  S
C168        C872   1.489       .  S
O169       V1393   1.905       .  S
O169       C3827   1.265       .  A
O170        V177   1.902       .  S
O170       C2612   1.265       .  A
O171        V177   1.899       .  S
O171        C181   1.265       .  A
O172       V1393   1.902       .  S
O172        C182   1.265       .  A
O173       V1394   1.899       .  S
O173       C2614   1.264       .  A
O174        V178   1.902       .  S
O174       C2613   1.265       .  A
O175       V1394   1.917       .  S
O175       C1396   1.268       .  A
O176        V178   1.916       .  S
O176        C179   1.268       .  A
V177       O1385   1.905       .  S
V177       O1388   1.896       .  S
V177       V2610   2.085       .  T
V178       O1389   1.904       .  S
V178       O1391   1.918       .  S
V178       V2609   2.085       .  T
C179       O3817   1.265       .  A
C179        C821   1.494       .  S
C180       O2602   1.265       .  A
C180       O1391   1.269       .  A
C180        C965   1.495       .  S
C181       O2606   1.265       .  A
C181        C797   1.482       .  S
C182       O2605   1.264       .  A
C182        C809   1.477       .  S
O183        V191   1.912       .  S
O183       C2625   1.267       .  A
O184        V191   1.907       .  S
O184       C2626   1.267       .  A
O185        V191   1.900       .  S
O185        C195   1.264       .  A
O186        V191   1.902       .  S
O186        C196   1.265       .  A
O187        V192   1.899       .  S
O187       C2628   1.264       .  A
O188        V192   1.899       .  S
O188       C2627   1.264       .  A
O189        V192   1.915       .  S
O189        C194   1.267       .  A
O190        V192   1.920       .  S
O190        C193   1.270       .  A
V191       V2624   2.083       .  T
V192       V2623   2.083       .  T
C193       O2615   1.267       .  A
C193        C785   1.506       .  S
C194       O2616   1.267       .  A
C194        C920   1.498       .  S
C195       O2620   1.264       .  A
C195        C812   1.478       .  S
C196       O2619   1.265       .  A
C196        C800   1.486       .  S
O197       V1421   1.904   1_545  S
O197       C1423   1.265       .  A
O198        V205   1.904       .  S
O198        C208   1.265       .  A
O199        V205   1.904       .  S
O199        C209   1.264       .  A
O200       V1421   1.902   1_545  S
O200        C210   1.266       .  A
O201       V1422   1.896   1_545  S
O201        C210   1.264       .  A
O202        V206   1.901       .  S
O202        C209   1.266       .  A
O203       V1422   1.918       .  S
O203       C1424   1.268       .  A
O204        V206   1.925       .  S
O204        C207   1.270       .  A
V205       O1413   1.905       .  S
V205       O1416   1.899       .  S
V205        V206   2.083       .  T
V206       O1417   1.898       .  S
V206       O1419   1.923       .  S
C207       O1413   1.266       .  A
C207        C896   1.504       .  S
C208       O1419   1.269       .  A
C208        C776   1.496       .  S
C209        C749   1.487       .  S
C210        C761   1.481       .  S
O211        V219   1.917       .  S
O211        C221   1.268       .  A
O212        V219   1.917       .  S
O212        C222   1.269       .  A
O213        V219   1.903       .  S
O213        C223   1.265       .  A
O214        V219   1.896       .  S
O214        C224   1.263       .  A
O215        V220   1.903       .  S
O215        C224   1.266       .  A
O216        V220   1.901       .  S
O216        C223   1.265       .  A
O217        V220   1.907       .  S
O217        C222   1.266       .  A
O218        V220   1.903       .  S
O218        C221   1.266       .  A
V219        V220   2.085       .  T
C221        C737   1.493       .  S
C222        C845   1.495       .  S
C223        C764   1.483       .  S
C224        C752   1.484       .  S
O225       V2665   1.920       .  S
O225       C3883   1.269       .  A
O226        V233   1.915       .  S
O226       C1452   1.268       .  A
O227        V233   1.896       .  S
O227        C237   1.262       .  A
O228       V2665   1.891   1_455  S
O228        C238   1.262       .  A
O229       V2666   1.899   1_455  S
O229       C1454   1.264       .  A
O230        V234   1.899       .  S
O230       C1453   1.265       .  A
O231       V2666   1.905       .  S
O231       C2668   1.267       .  A
O232        V234   1.908       .  S
O232        C235   1.266       .  A
V233       O2657   1.918       .  S
V233       O2660   1.893       .  S
V233       V1450   2.084       .  T
V234       O2661   1.898       .  S
V234       O2663   1.906       .  S
V234       V1449   2.085       .  T
C235       O3873   1.268       .  A
C235        C716   1.496       .  S
C236       O1442   1.268       .  A
C236       O2663   1.267       .  A
C236        C728   1.498       .  S
C237       O1446   1.265       .  A
C237        C689   1.477       .  S
C238       O1445   1.265       .  A
C238        C701   1.477       .  S
O239       V2679   1.916       .  S
O239       C2681   1.269       .  A
O240        V247   1.918       .  S
O240        C250   1.269       .  A
O241        V247   1.898   1_455  S
O241        C251   1.264       .  A
O242       V2679   1.893       .  S
O242        C252   1.262       .  A
O243       V2680   1.894       .  S
O243        C252   1.264       .  A
O244        V248   1.897   1_455  S
O244        C251   1.264       .  A
O245       V2680   1.902       .  S
O245       C2682   1.264       .  A
O246        V248   1.899   1_455  S
O246        C249   1.263       .  A
V247       O2671   1.916   1_655  S
V247       O2674   1.895       .  S
V247        V248   2.085       .  T
V248       O2675   1.894       .  S
V248       O2677   1.900       .  S
C249       O2671   1.269       .  A
C249        C668   1.494       .  S
C250       O2677   1.264       .  A
C250        C680   1.493       .  S
C251        C653   1.481       .  S
C252        C641   1.475       .  S
O253        V261   1.921       .  S
O253       C1479   1.270       .  A
O254        V261   1.919       .  S
O254       C1480   1.269       .  A
O255        V261   1.890       .  S
O255        C265   1.262       .  A
O256        V261   1.896       .  S
O256        C266   1.264       .  A
O257        V262   1.896       .  S
O257       C1482   1.263       .  A
O258        V262   1.898       .  S
O258       C1481   1.264       .  A
O259        V262   1.909       .  S
O259        C264   1.267       .  A
O260        V262   1.913       .  S
O260        C263   1.267       .  A
V261       V1478   2.085       .  T
V262       V1477   2.086       .  T
C263       O1469   1.270       .  A
C263        C632   1.499       .  S
C264       O1470   1.269       .  A
C264        C617   1.496       .  S
C265       O1474   1.264       .  A
C265        C692   1.472       .  S
C266       O1473   1.265       .  A
C266        C704   1.479       .  S
O267        V275   1.911       .  S
O267        C277   1.267       .  A
O268        V275   1.912       .  S
O268        C278   1.268       .  A
O269        V275   1.886       .  S
O269        C279   1.260       .  A
O270        V275   1.886       .  S
O270        C280   1.262       .  A
O271        V276   1.903       .  S
O271        C280   1.265       .  A
O272        V276   1.904       .  S
O272        C279   1.267       .  A
O273        V276   1.917       .  S
O273        C278   1.268       .  A
O274        V276   1.917       .  S
O274        C277   1.268       .  A
V275        V276   2.084       .  T
C277        C605   1.501       .  S
C278        C596   1.499       .  S
C279        C644   1.480       .  S
C280        C656   1.478       .  S
O281       V2721   1.906       .  S
O281       C3939   1.266       .  A
O282        V289   1.912       .  S
O282       C1508   1.267       .  A
O283        V289   1.896   1_455  S
O283        C293   1.263       .  A
O284       V2721   1.897       .  S
O284        C294   1.264       .  A
O285       V2722   1.899       .  S
O285       C1510   1.264       .  A
O286        V290   1.893   1_455  S
O286       C1509   1.263       .  A
O287       V2722   1.913       .  S
O287       C2724   1.268       .  A
O288        V290   1.913       .  S
O288        C291   1.269       .  A
V289       O2713   1.908       .  S
V289       O2716   1.896       .  S
V289       V1506   2.084       .  T
V290       O2717   1.900       .  S
V290       O2719   1.914       .  S
V290       V1505   2.083       .  T
C291       O3929   1.265       .  A
C291        C725   1.505       .  S
C292       O1498   1.266       .  A
C292       O2719   1.268       .  A
C292        C956   1.492   1_655  S
C293       O1502   1.264       .  A
C293        C581   1.480       .  S
C294       O1501   1.263       .  A
C294        C572   1.474       .  S
O295       V2735   1.910       .  S
O295       C2737   1.267       .  A
O296        V303   1.912   1_455  S
O296        C306   1.267       .  A
O297        V303   1.892   1_455  S
O297        C307   1.263       .  A
O298       V2735   1.898       .  S
O298        C308   1.265       .  A
O299       V2736   1.897       .  S
O299        C308   1.264       .  A
O300        V304   1.892   1_455  S
O300        C307   1.263       .  A
O301       V2736   1.912       .  S
O301       C2738   1.267       .  A
O302        V304   1.910       .  S
O302        C305   1.267       .  A
V303       O2727   1.909       .  S
V303       O2730   1.901       .  S
V303        V304   2.085       .  T
V304       O2731   1.896       .  S
V304       O2733   1.910   1_655  S
C305       O2727   1.266       .  A
C305        C677   1.494       .  S
C306       O2733   1.267       .  A
C306        C908   1.493       .  S
C307        C557   1.472       .  S
C308        C545   1.479       .  S
O309        V317   1.917       .  S
O309       C1535   1.269       .  A
O310        V317   1.919       .  S
O310       C1536   1.269       .  A
O311        V317   1.896       .  S
O311        C321   1.263       .  A
O312        V317   1.891       .  S
O312        C322   1.262       .  A
O313        V318   1.894       .  S
O313       C1538   1.264       .  A
O314        V318   1.898       .  S
O314       C1537   1.265       .  A
O315        V318   1.914       .  S
O315        C320   1.268       .  A
O316        V318   1.917       .  S
O316        C319   1.268       .  A
V317       V1534   2.084       .  T
V318       V1533   2.082       .  T
C319       O1525   1.270       .  A
C319        C884   1.502       .  S
C320       O1526   1.269       .  A
C320        C629   1.501       .  S
C321       O1530   1.265       .  A
C321        C569   1.479       .  S
C322       O1529   1.265       .  A
C322        C584   1.476       .  S
O323        V331   1.914       .  S
O323        C333   1.268       .  A
O324        V331   1.910       .  S
O324        C334   1.268       .  A
O325        V331   1.899       .  S
O325        C335   1.265       .  A
O326        V331   1.893       .  S
O326        C336   1.264       .  A
O327        V332   1.893       .  S
O327        C336   1.262       .  A
O328        V332   1.898       .  S
O328        C335   1.263       .  A
O329        V332   1.915       .  S
O329        C334   1.267       .  A
O330        V332   1.915       .  S
O330        C333   1.268       .  A
V331        V332   2.084       .  T
C333        C833   1.501       .  S
C334        C608   1.503       .  S
C335        C548   1.481       .  S
C336        C560   1.474       .  S
O337       V2777   1.908       .  S
O337       C3995   1.266       .  A
O338        V345   1.907       .  S
O338       C1564   1.266       .  A
O339        V345   1.894   1_455  S
O339        C349   1.264       .  A
O340       V2777   1.896       .  S
O340        C350   1.263       .  A
O341       V2778   1.902       .  S
O341       C1566   1.264       .  A
O342        V346   1.898   1_455  S
O342       C1565   1.264       .  A
O343       V2778   1.920       .  S
O343       C2780   1.269       .  A
O344        V346   1.926       .  S
O344        C347   1.271       .  A
V345       O2769   1.908       .  S
V345       O2772   1.897       .  S
V345       V1562   2.085       .  T
V346       O2773   1.903       .  S
V346       O2775   1.920       .  S
V346       V1561   2.084       .  T
C347       O3985   1.265       .  A
C347       C1061   1.502       .  S
C348       O1554   1.265       .  A
C348       O2775   1.269       .  A
C348        C713   1.495       .  S
C349       O1558   1.264       .  A
C349        C536   1.475       .  S
C350       O1557   1.264       .  A
C350        C524   1.477       .  S
O351       V2791   1.917       .  S
O351       C2793   1.268       .  A
O352        V359   1.917       .  S
O352        C362   1.269       .  A
O353        V359   1.895   1_455  S
O353        C363   1.264       .  A
O354       V2791   1.891       .  S
O354        C364   1.262       .  A
O355       V2792   1.901       .  S
O355        C364   1.265       .  A
O356        V360   1.898   1_455  S
O356        C363   1.264       .  A
O357       V2792   1.900       .  S
O357       C2794   1.265       .  A
O358        V360   1.903       .  S
O358        C361   1.266       .  A
V359       O2783   1.915       .  S
V359       O2786   1.891       .  S
V359        V360   2.085       .  T
V360       O2787   1.900       .  S
V360       O2789   1.901       .  S
C361       O2783   1.268       .  A
C361       C1028   1.492   1_655  S
C362       O2789   1.265       .  A
C362        C665   1.495       .  S
C363        C509   1.477       .  S
C364        C497   1.475       .  S
O365        V373   1.915       .  S
O365       C1591   1.267       .  A
O366        V373   1.919       .  S
O366       C1592   1.268       .  A
O367        V373   1.896       .  S
O367        C377   1.264       .  A
O368        V373   1.902       .  S
O368        C378   1.266       .  A
O369        V374   1.895       .  S
O369       C1594   1.262       .  A
O370        V374   1.894       .  S
O370       C1593   1.262       .  A
O371        V374   1.907       .  S
O371        C376   1.267       .  A
O372        V374   1.912       .  S
O372        C375   1.267       .  A
V373       V1590   2.085       .  T
V374       V1589   2.085       .  T
C375       O1581   1.268       .  A
C375        C620   1.497       .  S
C376       O1582   1.269       .  A
C376        C992   1.505       .  S
C377       O1586   1.263       .  A
C377        C521   1.472       .  S
C378       O1585   1.262       .  A
C378        C533   1.483       .  S
O379        V387   1.902       .  S
O379        C389   1.264       .  A
O380        V387   1.900       .  S
O380        C390   1.265       .  A
O381        V387   1.897       .  S
O381        C391   1.264       .  A
O382        V387   1.901       .  S
O382        C392   1.266       .  A
O383        V388   1.897       .  S
O383        C392   1.263       .  A
O384        V388   1.898       .  S
O384        C391   1.263       .  A
O385        V388   1.921       .  S
O385        C390   1.269       .  A
O386        V388   1.924       .  S
O386        C389   1.270       .  A
V387        V388   2.085       .  T
C389        C593   1.497       .  S
C390        C980   1.495       .  S
C391        C500   1.474       .  S
C392        C512   1.482       .  S
O393       V1617   1.904       .  S
O393       C4051   1.266       .  A
O394        V401   1.911       .  S
O394       C2836   1.268       .  A
O395        V401   1.903       .  S
O395        C405   1.265       .  A
O396       V1617   1.901   1_545  S
O396        C406   1.265       .  A
O397       V1618   1.899   1_545  S
O397       C2838   1.264       .  A
O398        V402   1.899       .  S
O398       C2837   1.264       .  A
O399       V1618   1.916       .  S
O399       C1620   1.267       .  A
O400        V402   1.919       .  S
O400        C403   1.269       .  A
V401       O1609   1.909       .  S
V401       O1612   1.901       .  S
V401       V2834   2.083       .  T
V402       O1613   1.902       .  S
V402       O1615   1.921       .  S
V402       V2833   2.084       .  T
C403       O4041   1.267       .  A
C403       C1205   1.502       .  S
C404       O2826   1.268       .  A
C404       O1615   1.268       .  A
C404        C824   1.505       .  S
C405       O2830   1.264       .  A
C405        C473   1.483       .  S
C406       O2829   1.264       .  A
C406        C485   1.480       .  S
O407        V415   1.905       .  S
O407       C2849   1.266       .  A
O408        V415   1.910       .  S
O408       C2850   1.268       .  A
O409        V415   1.902       .  S
O409        C419   1.265       .  A
O410        V415   1.901       .  S
O410        C420   1.265       .  A
O411        V416   1.894       .  S
O411       C2852   1.264       .  A
O412        V416   1.896       .  S
O412       C2851   1.263       .  A
O413        V416   1.927       .  S
O413        C418   1.271       .  A
O414        V416   1.920       .  S
O414        C417   1.269       .  A
V415       V2848   2.083       .  T
V416       V2847   2.083       .  T
C417       O2839   1.266       .  A
C417       C1160   1.497       .  S
C418       O2840   1.267       .  A
C418        C788   1.509       .  S
C419       O2844   1.263       .  A
C419        C488   1.479       .  S
C420       O2843   1.264       .  A
C420        C476   1.479       .  S
O421       V1645   1.902       .  S
O421       C1647   1.264       .  A
O422        V429   1.905       .  S
O422        C432   1.266       .  A
O423        V429   1.897       .  S
O423        C433   1.263       .  A
O424       V1645   1.902       .  S
O424        C434   1.264       .  A
O425       V1646   1.896       .  S
O425        C434   1.264       .  A
O426        V430   1.904       .  S
O426        C433   1.265       .  A
O427       V1646   1.915       .  S
O427       C1648   1.268       .  A
O428        V430   1.913       .  S
O428        C431   1.267       .  A
V429       O1637   1.909       .  S
V429       O1640   1.901       .  S
V429        V430   2.085       .  T
V430       O1641   1.900       .  S
V430       O1643   1.914       .  S
C431       O1637   1.266       .  A
C431        C773   1.496       .  S
C432       O1643   1.267       .  A
C432       C1133   1.494       .  S
C433        C449   1.478       .  S
C434        C461   1.479       .  S
O435        V443   1.901       .  S
O435        C445   1.265       .  A
O436        V443   1.904       .  S
O436        C446   1.266       .  A
O437        V443   1.903       .  S
O437        C447   1.265       .  A
O438        V443   1.903       .  S
O438        C448   1.266       .  A
O439        V444   1.901       .  S
O439        C448   1.264       .  A
O440        V444   1.897       .  S
O440        C447   1.264       .  A
O441        V444   1.916       .  S
O441        C446   1.268       .  A
O442        V444   1.918       .  S
O442        C445   1.268       .  A
V443        V444   2.085       .  T
C445        C740   1.493       .  S
C446       C1088   1.496       .  S
C447        C464   1.483       .  S
C448        C452   1.481       .  S
C449        C450   1.403       .  A
C449        C454   1.414       .  A
C450        C451   1.399       .  A
C450        H459   1.085       .  S
C451        C452   1.415       .  A
C451        S455   1.803       .  S
C452        C453   1.405       .  A
C453        C454   1.402       .  A
C453        H460   1.085       .  S
C454        S456   1.804       .  S
S455        H458   1.406       .  S
S456        H457   1.406       .  S
C461        C462   1.401       .  A
C461        C466   1.416       .  A
C462        C463   1.395       .  A
C462        H471   1.085       .  S
C463        C464   1.414       .  A
C463        S467   1.794       .  S
C464        C465   1.405       .  A
C465        C466   1.402       .  A
C465        H472   1.084       .  S
C466        S468   1.802       .  S
S467        H470   1.407       .  S
S468        H469   1.407       .  S
C473        C474   1.404       .  A
C473       C2910   1.414       .  A
C474        C475   1.402       .  A
C474        H483   1.084       .  S
C475        C476   1.416       .  A
C475        S479   1.803       .  S
C476       C2909   1.401       .  A
C477        C478   1.395       .  A
C477       C2908   1.401       .  A
C477        H484   1.084       .  S
C478       C2905   1.414       .  A
C478        S480   1.794       .  S
S479        H482   1.408       .  S
S480        H481   1.403       .  S
C485        C490   1.414       .  A
C485       C2918   1.404       .  A
C486        C487   1.400       .  A
C486       C2917   1.405       .  A
C486        H495   1.085       .  S
C487       C2920   1.416       .  A
C487        S491   1.804       .  S
C488        C489   1.403       .  A
C488       C2919   1.415       .  A
C489        C490   1.400       .  A
C489        H496   1.084       .  S
C490        S492   1.802       .  S
S491        H494   1.407       .  S
S492        H493   1.406       .  S
C497        C498   1.404       .  A
C497        C502   1.412       .  A
C498        C499   1.400       .  A
C498        H507   1.085       .  S
C499        C500   1.415       .  A
C499        S503   1.804       .  S
C500        C501   1.402       .  A
C501        C502   1.397       .  A
C501        H508   1.084       .  S
C502        S504   1.803       .  S
S503        H506   1.407       .  S
S504        H505   1.407       .  S
C509        C510   1.402       .  A
C509        C514   1.413       .  A
C510        C511   1.401       .  A
C510        H519   1.084       .  S
C511        C512   1.416       .  A
C511        S515   1.807       .  S
C512        C513   1.405       .  A
C513        C514   1.398       .  A
C513        H520   1.085       .  S
C514        S516   1.803       .  S
S515        H518   1.407       .  S
S516        H517   1.407       .  S
C521        C522   1.398       .  A
C521       C1742   1.413       .  A
C522        C523   1.394       .  A
C522        H531   1.085       .  S
C523       C1740   1.414       .  A
C523        S527   1.789       .  S
C524        C525   1.404       .  A
C524       C1739   1.413       .  A
C525        C526   1.399       .  A
C525        H532   1.083       .  S
C526       C1737   1.412       .  A
C526        S528   1.802       .  S
S527        H530   1.394       .  S
S528        H529   1.407       .  S
C533        C534   1.406       .  A
C533       C1754   1.416       .  A
C534        C535   1.400       .  A
C534        H543   1.084       .  S
C535       C1752   1.413       .  A
C535        S539   1.803       .  S
C536        C537   1.400       .  A
C536       C1751   1.413       .  A
C537        C538   1.394       .  A
C537        H544   1.084       .  S
C538       C1749   1.414       .  A
C538        S540   1.796       .  S
S539        H542   1.406       .  S
S540        H541   1.407   1_565  S
C545        C546   1.403       .  A
C545        C550   1.414       .  A
C546        C547   1.403       .  A
C546        H555   1.082       .  S
C547        C548   1.415       .  A
C547        S551   1.807       .  S
C548        C549   1.404       .  A
C549        C550   1.398       .  A
C549        H556   1.083       .  S
C550        S552   1.803       .  S
S551        H554   1.406       .  S
S552        H553   1.408       .  S
C557        C558   1.404       .  A
C557        C562   1.413       .  A
C558        C559   1.401       .  A
C558        H567   1.083       .  S
C559        C560   1.414       .  A
C559        S563   1.809       .  S
C560        C561   1.402       .  A
C561        C562   1.393       .  A
C561        H568   1.084       .  S
C562        S564   1.804       .  S
S563        H566   1.407       .  S
S564        H565   1.407       .  S
C569        C574   1.415       .  A
C569       C1786   1.403       .  A
C570        C571   1.398       .  A
C570       C1785   1.404       .  A
C570        H579   1.085       .  S
C571        C572   1.413       .  A
C571        S575   1.804   1_565  S
C572       C1789   1.403       .  A
C573        C574   1.400       .  A
C573       C1788   1.403       .  A
C573        H580   1.084       .  S
C574        S576   1.803       .  S
S575        H578   1.408   1_545  S
S576        H577   1.408       .  S
C581        C586   1.416       .  A
C581       C1798   1.404       .  A
C582        C583   1.395       .  A
C582       C1797   1.403       .  A
C582        H591   1.085       .  S
C583        C584   1.416       .  A
C583        S587   1.803       .  S
C584       C1801   1.404       .  A
C585        C586   1.402       .  A
C585       C1800   1.404       .  A
C585        H592   1.083   1_565  S
C586        S588   1.809   1_565  S
S587        H590   1.406       .  S
S588        H589   1.407       .  S
C593        C594   1.405       .  A
C593        C598   1.418       .  A
C594        C595   1.409   1_556  A
C594        H603   1.083       .  S
C595        C596   1.418       .  A
C595        S599   1.797       .  S
C596        C597   1.405       .  A
C597        C598   1.405   1_554  A
C597        H604   1.083       .  S
C598        S600   1.802       .  S
S599        H602   1.407       .  S
S600        H601   1.406       .  S
C605        C606   1.407       .  A
C605        C610   1.417       .  A
C606        C607   1.410       .  A
C606        H615   1.084       .  S
C607        C608   1.420       .  A
C607        S611   1.799       .  S
C608        C609   1.406       .  A
C609        C610   1.404       .  A
C609        H616   1.084       .  S
C610        S612   1.799       .  S
S611        H614   1.407       .  S
S612        H613   1.406       .  S
C617        C622   1.416       .  A
C617       C1834   1.408       .  A
C618        C619   1.410   1_554  A
C618       C1833   1.408       .  A
C618        H627   1.084       .  S
C619       C1836   1.417       .  A
C619        S623   1.803       .  S
C620        C621   1.406       .  A
C620       C1835   1.418       .  A
C621        C622   1.406   1_556  A
C621        H628   1.083       .  S
C622        S624   1.803       .  S
S623        H626   1.406       .  S
S624        H625   1.406       .  S
C629        C634   1.418       .  A
C629       C1846   1.408       .  A
C630        C631   1.411       .  A
C630       C1845   1.409       .  A
C630        H639   1.084       .  S
C631       C1848   1.418       .  A
C631        S635   1.802       .  S
C632        C633   1.405       .  A
C632       C1847   1.418       .  A
C633        C634   1.408       .  A
C633        H640   1.085       .  S
C634        S636   1.803       .  S
S635        H638   1.407       .  S
S636        H637   1.407       .  S
C641        C642   1.401       .  A
C641        C646   1.413       .  A
C642        C643   1.399       .  A
C642        H651   1.082       .  S
C643        C644   1.418       .  A
C643        S647   1.809       .  S
C644        C645   1.405       .  A
C645        C646   1.398       .  A
C645        H652   1.083       .  S
C646        S648   1.804       .  S
S647        H650   1.407       .  S
S648        H649   1.407       .  S
C653        C654   1.407       .  A
C653        C658   1.415       .  A
C654        C655   1.401       .  A
C654        H663   1.084       .  S
C655        C656   1.413       .  A
C655        S659   1.804       .  S
C656        C657   1.403       .  A
C657        C658   1.398       .  A
C657        H664   1.083       .  S
C658        S660   1.807       .  S
S659        H662   1.408       .  S
S660        H661   1.407       .  S
C665        C666   1.404   1_655  A
C665       C3102   1.415       .  A
C666        C667   1.401   1_556  A
C666        H675   1.084       .  S
C667        C668   1.419       .  A
C667        S671   1.798       .  S
C668       C3101   1.405   1_455  A
C669        C670   1.406   1_554  A
C669       C3100   1.405       .  A
C669        H676   1.084       .  S
C670       C3097   1.415       .  A
C670        S672   1.792       .  S
S671        H674   1.403       .  S
S672        H673   1.406       .  S
C677        C682   1.417   1_655  A
C677       C3110   1.405       .  A
C678        C679   1.403       .  A
C678       C3109   1.405       .  A
C678        H687   1.083       .  S
C679       C3112   1.417       .  A
C679        S683   1.804       .  S
C680        C681   1.405   1_655  A
C680       C3111   1.417       .  A
C681        C682   1.411       .  A
C681        H688   1.082       .  S
C682        S684   1.808       .  S
S683        H686   1.408       .  S
S684        H685   1.407       .  S
C689        C694   1.415       .  A
C689       C1906   1.405       .  A
C690        C691   1.398       .  A
C690       C1905   1.405       .  A
C690        H699   1.084       .  S
C691       C1908   1.412       .  A
C691        S695   1.803       .  S
C692        C693   1.400       .  A
C692       C1907   1.412       .  A
C693        C694   1.395       .  A
C693        H700   1.085       .  S
C694        S696   1.798       .  S
S695        H698   1.408       .  S
S696        H697   1.402       .  S
C701        C702   1.403       .  A
C701       C1922   1.413       .  A
C702        C703   1.396       .  A
C702        H711   1.084       .  S
C703        C704   1.414       .  A
C703        S707   1.799       .  S
C704       C1921   1.405       .  A
C705        C706   1.400       .  A
C705       C1920   1.404       .  A
C705        H712   1.084       .  S
C706       C1917   1.414       .  A
C706        S708   1.802       .  S
S707        H710   1.407       .  S
S708        H709   1.407       .  S
C713       C1930   1.408   1_655  A
C713       C3150   1.416       .  A
C714        C715   1.409   1_556  A
C714       C1929   1.407   1_455  A
C714        H723   1.083       .  S
C715       C3148   1.417   1_455  A
C715        S719   1.803       .  S
C716       C3147   1.418       .  A
C716       C1933   1.405       .  A
C717        C718   1.404   1_554  A
C717       C1932   1.405       .  A
C717        H724   1.084       .  S
C718       C3145   1.416       .  A
C718        S720   1.803       .  S
S719        H722   1.406       .  S
S720        H721   1.408       .  S
C725       C3158   1.408       .  A
C725       C1946   1.421       .  A
C726        C727   1.406       .  A
C726       C3157   1.408       .  A
C726        H735   1.084       .  S
C727       C1944   1.419       .  A
C727        S731   1.796       .  S
C728       C1943   1.417       .  A
C728       C3161   1.406       .  A
C729        C730   1.408       .  A
C729       C3160   1.407   1_455  A
C729        H736   1.082       .  S
C730       C1941   1.418   1_455  A
C730        S732   1.809   1_565  S
S731        H734   1.399       .  S
S732        H733   1.407       .  S
C737        C738   1.408       .  A
C737        C742   1.415       .  A
C738        C739   1.410       .  A
C738        H747   1.083       .  S
C739        C740   1.417       .  A
C739        S743   1.804       .  S
C740        C741   1.405       .  A
C741        C742   1.401       .  A
C741        H748   1.083       .  S
C742        S744   1.803       .  S
S743        H746   1.406       .  S
S744        H745   1.407       .  S
C749        C750   1.403       .  A
C749        C754   1.417       .  A
C750        C751   1.397       .  A
C750        H759   1.084       .  S
C751        C752   1.413       .  A
C751        S755   1.796       .  S
C752        C753   1.403       .  A
C753        C754   1.406       .  A
C753        H760   1.082       .  S
C754        S756   1.805       .  S
S755        H758   1.394       .  S
S756        H757   1.407       .  S
C761        C762   1.405       .  A
C761        C766   1.413       .  A
C762        C763   1.404       .  A
C762        H771   1.081       .  S
C763        C764   1.413       .  A
C763        S767   1.806       .  S
C764        C765   1.405       .  A
C765        C766   1.400       .  A
C765        H772   1.082       .  S
C766        S768   1.803       .  S
S767        H770   1.407       .  S
S768        H769   1.408       .  S
C773        C774   1.405       .  A
C773       C1994   1.418       .  A
C774        C775   1.404       .  A
C774        H783   1.084       .  S
C775        C776   1.416       .  A
C775        S779   1.803       .  S
C776       C1993   1.408       .  A
C777        C778   1.410       .  A
C777       C1992   1.407   1_545  A
C777        H784   1.084       .  S
C778       C1989   1.417       .  A
C778        S780   1.803       .  S
S779        H782   1.408       .  S
S780        H781   1.407       .  S
C785        C790   1.420       .  A
C785       C3218   1.407       .  A
C786        C787   1.408       .  A
C786       C3217   1.407       .  A
C786        H795   1.084       .  S
C787       C3220   1.417       .  A
C787        S791   1.792       .  S
C788        C789   1.408       .  A
C788       C3219   1.417       .  A
C789        C790   1.412       .  A
C789        H796   1.082       .  S
C790        S792   1.806       .  S
S791        H794   1.407       .  S
S792        H793   1.406   1_455  S
C797        C798   1.402       .  A
C797       C3234   1.416       .  A
C798        C799   1.397       .  A
C798        H807   1.084       .  S
C799        C800   1.414       .  A
C799        S803   1.797       .  S
C800       C3233   1.406       .  A
C801        C802   1.402       .  A
C801       C3232   1.406       .  A
C801        H808   1.084       .  S
C802       C3229   1.415       .  A
C802        S804   1.803       .  S
S803        H806   1.406       .  S
S804        H805   1.407       .  S
C809        C810   1.403       .  A
C809       C3246   1.414       .  A
C810        C811   1.400       .  A
C810        H819   1.083       .  S
C811        C812   1.414       .  A
C811        S815   1.803       .  S
C812       C3245   1.404       .  A
C813        C814   1.401       .  A
C813       C3244   1.404       .  A
C813        H820   1.084       .  S
C814       C3241   1.414       .  A
C814        S816   1.804       .  S
S815        H818   1.408       .  S
S816        H817   1.407       .  S
C821       C2038   1.402       .  A
C821       C3258   1.415       .  A
C822        C823   1.404       .  A
C822       C2037   1.402   1_565  A
C822        H831   1.085       .  S
C823       C2040   1.422       .  A
C823        S827   1.796       .  S
C824       C2039   1.424       .  A
C824       C3257   1.408       .  A
C825        C826   1.404       .  A
C825       C3256   1.408       .  A
C825        H832   1.082       .  S
C826       C3253   1.414       .  A
C826        S828   1.803       .  S
S827        H830   1.392       .  S
S828       H2045   1.407       .  S
H829       S2044   1.407       .  S
C833        C834   1.410       .  A
C833        C838   1.417       .  A
C834        C835   1.409       .  A
C834        H843   1.083       .  S
C835        C836   1.415       .  A
C835        S839   1.803       .  S
C836        C837   1.404       .  A
C837        C838   1.405       .  A
C837        H844   1.084       .  S
C838        S840   1.798       .  S
S839        H842   1.407       .  S
S840        H841   1.405       .  S
C845        C846   1.406       .  A
C845        C850   1.418       .  A
C846        C847   1.404       .  A
C846        H855   1.084       .  S
C847        C848   1.416       .  A
C847        S851   1.804       .  S
C848        C849   1.407       .  A
C849        C850   1.409       .  A
C849        H856   1.084       .  S
C850        S852   1.803       .  S
S851        H854   1.407       .  S
S852        H853   1.407       .  S
C857        C858   1.407       .  A
C857        C862   1.415       .  A
C858        C859   1.404       .  A
C858        H867   1.081       .  S
C859        C860   1.413       .  A
C859        S863   1.809       .  S
C860        C861   1.404       .  A
C861        C862   1.396       .  A
C861        H868   1.083       .  S
C862        S864   1.803       .  S
S863        H866   1.407       .  S
S864        H865   1.408       .  S
C869        C870   1.405       .  A
C869        C874   1.420       .  A
C870        C871   1.399       .  A
C870        H879   1.084       .  S
C871        C872   1.417       .  A
C871        S875   1.802       .  S
C872        C873   1.406       .  A
C873        C874   1.404       .  A
C873        H880   1.082       .  S
C874        S876   1.812       .  S
S875        H878   1.408       .  S
S876        H877   1.406       .  S
C881        C882   1.409   1_565  A
C881       C2102   1.418       .  A
C882        C883   1.413       .  A
C882        H891   1.084       .  S
C883        C884   1.418   1_545  A
C883        S887   1.802       .  S
C884       C2101   1.406       .  A
C885        C886   1.407       .  A
C885       C2100   1.407       .  A
C885        H892   1.080       .  S
C886       C2097   1.415       .  A
C886        S888   1.802       .  S
S887        H890   1.406   1_545  S
S888        H889   1.405       .  S
C893        C898   1.418       .  A
C893       C2110   1.407   1_545  A
C894        C895   1.402       .  A
C894       C2109   1.405       .  A
C894        H903   1.083       .  S
C895        C896   1.419       .  A
C895        S899   1.799       .  S
C896       C2113   1.409       .  A
C897        C898   1.410       .  A
C897       C2112   1.410       .  A
C897        H904   1.083       .  S
C898        S900   1.801       .  S
S899        H902   1.403       .  S
S900        H901   1.407       .  S
C905        C906   1.405       .  A
C905       C3342   1.416       .  A
C906        C907   1.406       .  A
C906        H915   1.084       .  S
C907        C908   1.419       .  A
C907        S911   1.802       .  S
C908       C3341   1.405   1_455  A
C909        C910   1.407       .  A
C909       C3340   1.404       .  A
C909        H916   1.084       .  S
C910       C3337   1.417       .  A
C910        S912   1.802       .  S
S911        H914   1.404       .  S
S912        H913   1.407       .  S
C917        C918   1.407       .  A
C917       C3354   1.418       .  A
C918        C919   1.409       .  A
C918        H927   1.084       .  S
C919        C920   1.419       .  A
C919        S923   1.801       .  S
C920       C3353   1.405       .  A
C921        C922   1.402       .  A
C921       C3352   1.405       .  A
C921        H928   1.084       .  S
C922       C3349   1.419       .  A
C922        S924   1.803       .  S
S923        H926   1.407       .  S
S924        H925   1.408       .  S
C929        C930   1.404       .  A
C929       C3366   1.416       .  A
C930        C931   1.398       .  A
C930        H939   1.084       .  S
C931        C932   1.414       .  A
C931        S935   1.803       .  S
C932       C3365   1.404       .  A
C933        C934   1.399       .  A
C933       C3364   1.404       .  A
C933        H940   1.083       .  S
C934       C3361   1.415       .  A
C934        S936   1.803       .  S
S935        H938   1.407       .  S
S936        H937   1.408       .  S
C941        C942   1.407       .  A
C941       C3378   1.415       .  A
C942        C943   1.404       .  A
C942        H951   1.084       .  S
C943        C944   1.417       .  A
C943        S947   1.802       .  S
C944       C3377   1.404       .  A
C945        C946   1.398       .  A
C945       C3376   1.405       .  A
C945        H952   1.084   1_455  S
C946       C3373   1.415       .  A
C946        S948   1.803   1_455  S
S947        H950   1.407       .  S
S948        H949   1.407   1_655  S
C953        C958   1.417       .  A
C953       C4602   1.407   1_455  A
C954        C955   1.410       .  A
C954       C4601   1.407   1_545  A
C954        H963   1.083       .  S
C955       C4604   1.419   1_545  A
C955        S959   1.802       .  S
C956        C957   1.405       .  A
C956       C4603   1.416   1_455  A
C957        C958   1.405       .  A
C957        H964   1.084       .  S
C958        S960   1.803       .  S
S959        H962   1.407       .  S
S960        H961   1.405       .  S
C965        C966   1.407       .  A
C965       C4618   1.417       .  A
C966        C967   1.409       .  A
C966        H975   1.084       .  S
C967        C968   1.419       .  A
C967        S971   1.803       .  S
C968       C4617   1.404       .  A
C969        C970   1.401       .  A
C969       C4616   1.404       .  A
C969        H976   1.083       .  S
C970       C4613   1.415       .  A
C970        S972   1.803       .  S
S971        H974   1.407       .  S
S972        H973   1.406       .  S
C977        C978   1.409       .  A
C977        C982   1.415       .  A
C978        C979   1.407       .  A
C978        H987   1.084       .  S
C979        C980   1.414       .  A
C979        S983   1.799       .  S
C980        C981   1.406       .  A
C981        C982   1.407       .  A
C981        H988   1.082       .  S
C982        S984   1.808       .  S
S983        H986   1.405       .  S
S984        H985   1.407       .  S
C989        C990   1.405       .  A
C989       C2210   1.419       .  A
C990        C991   1.400       .  A
C990        H999   1.084       .  S
C991        C992   1.418       .  A
C991        S995   1.798       .  S
C992       C2209   1.411       .  A
C993        C994   1.412       .  A
C993       C2208   1.409       .  A
C993       H1000   1.083       .  S
C994       C2205   1.417       .  A
C994        S996   1.801       .  S
S995        H998   1.403       .  S
S996        H997   1.407       .  S
C1001      C1002   1.404       .  A
C1001      C1006   1.416       .  A
C1002      C1003   1.401       .  A
C1002      H1011   1.083       .  S
C1003      C1004   1.416       .  A
C1003      S1007   1.802       .  S
C1004      C1005   1.405       .  A
C1005      C1006   1.399       .  A
C1005      H1012   1.083       .  S
C1006      S1008   1.804       .  S
S1007      H1010   1.408       .  S
S1008      H1009   1.408       .  S
C1013      C1014   1.401       .  A
C1013      C1018   1.414       .  A
C1014      C1015   1.392       .  A
C1014      H1023   1.084       .  S
C1015      C1016   1.413       .  A
C1015      S1019   1.802       .  S
C1016      C1017   1.404       .  A
C1017      C1018   1.404       .  A
C1017      H1024   1.083       .  S
C1018      S1020   1.808       .  S
S1019      H1022   1.405       .  S
S1020      H1021   1.407       .  S
C1025      C1030   1.417       .  A
C1025      C3458   1.408   1_455  A
C1026      C1027   1.410       .  A
C1026      C3457   1.408       .  A
C1026      H1035   1.083       .  S
C1027      C3460   1.417       .  A
C1027      S1031   1.802       .  S
C1028      C1029   1.404       .  A
C1028      C3459   1.417   1_455  A
C1029      C1030   1.401       .  A
C1029      H1036   1.085       .  S
C1030      S1032   1.803       .  S
S1031      H1034   1.406       .  S
S1032      H1033   1.407       .  S
C1037      C1042   1.419       .  A
C1037      C2254   1.405       .  A
C1038      C1039   1.398       .  A
C1038      C2253   1.405       .  A
C1038      H1047   1.084   1_565  S
C1039      C1040   1.416       .  A
C1039      S1043   1.802   1_565  S
C1040      C2257   1.404       .  A
C1041      C1042   1.399       .  A
C1041      C2256   1.406       .  A
C1041      H1048   1.084       .  S
C1042      S1044   1.803       .  S
S1043      H1046   1.408   1_545  S
S1044      H1045   1.403       .  S
C1049      C1054   1.413       .  A
C1049      C2266   1.402       .  A
C1050      C1051   1.395       .  A
C1050      C2265   1.401       .  A
C1050      H1059   1.084       .  S
C1051      C1052   1.413       .  A
C1051      S1055   1.802       .  S
C1052      C2269   1.403       .  A
C1053      C1054   1.396       .  A
C1053      C2268   1.404       .  A
C1053      H1060   1.083       .  S
C1054      S1056   1.804       .  S
S1055      H1058   1.406       .  S
S1056      H1057   1.407       .  S
C1061      C3494   1.409   1_655  A
C1061      C2282   1.419       .  A
C1062      C1063   1.413       .  A
C1062      C3493   1.409       .  A
C1062      H1071   1.084       .  S
C1063      C3496   1.420       .  A
C1063      S1067   1.799       .  S
C1064      C3495   1.420   1_655  A
C1064      C2281   1.404       .  A
C1065      C1066   1.405       .  A
C1065      C2280   1.406   1_655  A
C1065      H1072   1.083       .  S
C1066      C2277   1.418       .  A
C1066      S1068   1.802       .  S
S1067      H1070   1.405       .  S
S1068      H1069   1.406       .  S
C1073      C1074   1.405       .  A
C1073      C1078   1.419       .  A
C1074      C1075   1.407       .  A
C1074      H1083   1.084       .  S
C1075      C1076   1.417       .  A
C1075      S1079   1.802       .  S
C1076      C1077   1.403       .  A
C1077      C1078   1.404       .  A
C1077      H1084   1.084       .  S
C1078      S1080   1.803       .  S
S1079      H1082   1.406       .  S
S1080      H1081   1.407       .  S
C1085      C1086   1.407       .  A
C1085      C1090   1.418       .  A
C1086      C1087   1.409       .  A
C1086      H1095   1.084       .  S
C1087      C1088   1.418       .  A
C1087      S1091   1.803       .  S
C1088      C1089   1.405       .  A
C1089      C1090   1.402       .  A
C1089      H1096   1.084       .  S
C1090      S1092   1.803       .  S
S1091      H1094   1.407       .  S
S1092      H1093   1.407       .  S
C1097      C1098   1.403       .  A
C1097      C1102   1.417       .  A
C1098      C1099   1.398       .  A
C1098      H1107   1.085       .  S
C1099      C1100   1.418       .  A
C1099      S1103   1.803       .  S
C1100      C1101   1.402       .  A
C1101      C1102   1.395       .  A
C1101      H1108   1.085       .  S
C1102      S1104   1.802       .  S
S1103      H1106   1.408       .  S
S1104      H1105   1.405       .  S
C1109      C1110   1.408       .  A
C1109      C1114   1.416       .  A
C1110      C1111   1.403       .  A
C1110      H1119   1.084       .  S
C1111      C1112   1.417       .  A
C1111      S1115   1.811       .  S
C1112      C1113   1.407       .  A
C1113      C1114   1.399       .  A
C1113      H1120   1.085       .  S
C1114      S1116   1.802       .  S
S1115      H1118   1.406       .  S
S1116      H1117   1.408       .  S
C1121      C1122   1.409       .  A
C1121      C2342   1.413       .  A
C1122      C1123   1.406   1_565  A
C1122      H1131   1.084   1_565  S
C1123      C1124   1.413   1_545  A
C1123      S1127   1.804       .  S
C1124      C1256   1.484       .  S
C1124      C2341   1.403       .  A
C1125      C1126   1.405       .  A
C1125      C2340   1.408       .  A
C1125      H1132   1.080       .  S
C1126      C2337   1.412       .  A
C1126      S1128   1.799       .  S
S1127      H1130   1.407       .  S
S1128      H1129   1.407       .  S
C1133      C1138   1.416       .  A
C1133      C2350   1.408       .  A
C1134      C1135   1.407       .  A
C1134      C2349   1.407       .  A
C1134      H1143   1.083       .  S
C1135      C2352   1.417       .  A
C1135      S1139   1.803       .  S
C1136      C1137   1.405       .  A
C1136      C2351   1.418       .  A
C1137      C1138   1.401       .  A
C1137      H1144   1.084       .  S
C1138      S1140   1.803       .  S
S1139      H1142   1.408       .  S
S1140      H1141   1.407       .  S
C1145      C1146   1.405       .  A
C1145      C3582   1.419       .  A
C1146      C1147   1.405       .  A
C1146      H1155   1.083       .  S
C1147      C1148   1.416       .  A
C1147      S1151   1.800       .  S
C1148      C3581   1.405       .  A
C1149      C1150   1.409       .  A
C1149      C3580   1.405       .  A
C1149      H1156   1.084       .  S
C1150      C3577   1.420       .  A
C1150      S1152   1.802       .  S
S1151      H1154   1.404       .  S
S1152      H1153   1.408       .  S
C1157      C1158   1.408       .  A
C1157      C3594   1.416       .  A
C1158      C1159   1.410       .  A
C1158      H1167   1.084       .  S
C1159      C1160   1.418       .  A
C1159      S1163   1.803       .  S
C1160      C3593   1.407       .  A
C1161      C1162   1.404       .  A
C1161      C3592   1.406       .  A
C1161      H1168   1.084       .  S
C1162      C3589   1.415       .  A
C1162      S1164   1.803       .  S
S1163      H1166   1.407       .  S
S1164      H1165   1.407       .  S
C1169      C1174   1.417       .  A
C1169      C3602   1.406       .  A
C1170      C1171   1.400       .  A
C1170      C3601   1.407       .  A
C1170      H1179   1.084       .  S
C1171      C1172   1.416       .  A
C1171      S1175   1.801       .  S
C1172      C3605   1.405       .  A
C1173      C1174   1.396       .  A
C1173      C3604   1.405       .  A
C1173      H1180   1.084       .  S
C1174      S1176   1.803       .  S
S1175      H1178   1.408       .  S
S1176      H1177   1.408       .  S
C1181      C1182   1.405       .  A
C1181      C3618   1.415       .  A
C1182      C1183   1.399       .  A
C1182      H1191   1.084       .  S
C1183      C3616   1.415       .  A
C1183      S1187   1.804       .  S
C1184      C1185   1.405       .  A
C1184      C3615   1.418       .  A
C1185      C1186   1.400       .  A
C1185      H1192   1.084       .  S
C1186      C3613   1.416       .  A
C1186      S1188   1.802       .  S
S1187      H1190   1.408       .  S
S1188      H1189   1.408       .  S
C1193      C3626   1.403   1_565  A
C1193      C2414   1.416       .  A
C1194      C1195   1.408       .  A
C1194      C3625   1.402   1_545  A
C1194      H1203   1.083       .  S
C1195      C2412   1.423   1_545  A
C1195      S1199   1.801       .  S
C1196      C2411   1.422       .  A
C1196      C3629   1.406       .  A
C1197      C1198   1.405       .  A
C1197      C3628   1.406       .  A
C1197      H1204   1.083       .  S
C1198      C2409   1.416       .  A
C1198      S1200   1.802       .  S
S1199      H1202   1.408       .  S
S1200      H1201   1.405       .  S
C1205      C1206   1.409       .  A
C1205      C4858   1.418       .  A
C1206      C1207   1.411       .  A
C1206      H1215   1.084       .  S
C1207      C4856   1.419       .  A
C1207      S1211   1.802       .  S
C1208      C1209   1.405   1_565  A
C1208      C4855   1.418       .  A
C1209      C1210   1.403       .  A
C1209      H1216   1.083       .  S
C1210      C4853   1.417   1_545  A
C1210      S1212   1.804       .  S
S1211      H1214   1.407       .  S
S1212      H1213   1.408       .  S
O1217      C2443   1.269       .  A
O1218      V1225   1.920       .  S
O1218      C3660   1.269       .  A
O1219      V1225   1.898       .  S
O1219      C1229   1.265       .  A
O1220      C1230   1.262       .  A
O1221      C3662   1.265       .  A
O1222      V1226   1.905       .  S
O1222      C3661   1.266       .  A
O1224      V1226   1.906       .  S
O1224      C1227   1.265       .  A
V1225      V3658   2.084       .  T
V1226      V3657   2.084       .  T
C1227      O2433   1.269       .  A
C1227      C2409   1.491       .  S
C1228      O3650   1.269       .  A
C1228      C2424   1.501       .  S
C1229      O3654   1.266       .  A
C1229      C2397   1.490       .  S
C1230      O3653   1.265       .  A
C1230      C2385   1.482       .  S
O1231      V1239   1.911       .  S
O1231      C3673   1.266       .  A
O1232      V1239   1.908       .  S
O1232      C3674   1.266       .  A
O1233      V1239   1.905       .  S
O1233      C1243   1.266       .  A
O1234      V1239   1.903       .  S
O1234      C1244   1.265       .  A
O1235      V1240   1.887       .  S
O1235      C3676   1.262       .  A
O1236      V1240   1.898       .  S
O1236      C3675   1.264       .  A
O1237      V1240   1.918       .  S
O1237      C1242   1.268       .  A
O1238      V1240   1.919       .  S
O1238      C1241   1.269       .  A
V1239      V3672   2.085       .  T
V1240      V3671   2.084       .  T
C1241      O3663   1.266       .  A
C1241      C2364   1.499       .  S
C1242      O3664   1.266       .  A
C1242      C2373   1.495       .  S
C1243      O3668   1.264       .  A
C1243      C2400   1.483       .  S
C1244      O3667   1.262       .  A
C1244      C2388   1.479       .  S
O1246      V1253   1.906   1_565  S
O1246      C1256   1.266       .  A
O1247      V1253   1.890   1_565  S
O1247      C1257   1.262       .  A
O1248      C1258   1.265       .  A
O1249      C1258   1.265       .  A
O1250      V1254   1.903   1_565  S
O1250      C1257   1.266       .  A
O1252      V1254   1.907       .  S
O1252      C1255   1.265       .  A
V1253      V1254   2.084       .  T
C1255      C2352   1.488       .  S
C1257      C2313   1.480       .  S
C1258      C2328   1.484       .  S
O1259      V1267   1.915       .  S
O1259      C1269   1.269       .  A
O1260      V1267   1.916       .  S
O1260      C1270   1.268       .  A
O1261      V1267   1.897       .  S
O1261      C1271   1.264       .  A
O1262      V1267   1.893       .  S
O1262      C1272   1.262       .  A
O1263      V1268   1.896       .  S
O1263      C1272   1.265       .  A
O1264      V1268   1.902       .  S
O1264      C1271   1.265       .  A
O1265      V1268   1.904       .  S
O1265      C1270   1.265       .  A
O1266      V1268   1.907       .  S
O1266      C1269   1.266       .  A
V1267      V1268   2.085       .  T
C1269      C2289   1.496       .  S
C1270      C2301   1.494       .  S
C1271      C2325   1.482       .  S
C1272      C2316   1.479       .  S
O1273      V3713   1.908       .  S
O1273      C2499   1.266       .  A
O1274      V1281   1.906       .  S
O1275      V1281   1.892       .  S
O1275      C1285   1.263       .  A
O1276      V3713   1.898       .  S
O1276      C1286   1.263       .  A
O1277      V3714   1.899       .  S
O1278      V1282   1.892       .  S
O1279      V3714   1.917       .  S
O1279      C3716   1.268       .  A
O1280      V1282   1.916       .  S
O1280      C1283   1.269       .  A
V1281      O3705   1.906       .  S
V1281      O3708   1.896   1_455  S
V1282      O3709   1.899   1_455  S
V1282      O3711   1.918       .  S
C1283      O2489   1.266       .  A
C1283      C2412   1.502       .  S
C1284      O3711   1.268       .  A
C1284      C2280   1.503       .  S
C1285      C2265   1.469       .  S
C1286      C2256   1.488       .  S
O1287      V3727   1.923       .  S
O1287      C3729   1.271       .  A
O1288      V1295   1.921       .  S
O1288      C1298   1.270       .  A
O1289      V1295   1.886       .  S
O1289      C1299   1.261       .  A
O1290      V3727   1.893       .  S
O1290      C1300   1.262       .  A
O1291      V3728   1.904       .  S
O1291      C1300   1.266       .  A
O1292      V1296   1.906       .  S
O1292      C1299   1.266       .  A
O1293      V3728   1.905       .  S
O1293      C3730   1.266       .  A
O1294      V1296   1.907       .  S
O1294      C1297   1.265       .  A
V1295      O3719   1.923       .  S
V1295      O3722   1.892   1_455  S
V1295      V1296   2.084       .  T
V1296      O3723   1.904   1_455  S
V1296      O3725   1.904       .  S
C1297      O3719   1.270       .  A
C1297      C2361   1.498       .  S
C1298      O3725   1.265       .  A
C1298      C2241   1.501   1_455  S
C1299      C2232   1.477       .  S
C1300      C2217   1.479       .  S
O1301      V1309   1.923       .  S
O1302      V1309   1.920       .  S
O1303      V1309   1.897       .  S
O1303      C1313   1.263       .  A
O1304      V1309   1.893       .  S
O1304      C1314   1.263       .  A
O1305      V1310   1.894       .  S
O1306      V1310   1.901       .  S
O1307      V1310   1.897       .  S
O1307      C1312   1.263       .  A
O1308      V1310   1.898       .  S
O1308      C1311   1.265       .  A
C1311      C2205   1.495       .  S
C1312      C2337   1.488       .  S
C1313      C2253   1.486       .  S
C1314      C2268   1.471       .  S
O1315      V1323   1.909       .  S
O1315      C1325   1.267       .  A
O1316      V1323   1.911       .  S
O1316      C1326   1.266       .  A
O1317      V1323   1.897       .  S
O1317      C1327   1.264       .  A
O1318      V1323   1.893       .  S
O1318      C1328   1.262       .  A
O1319      V1324   1.896       .  S
O1319      C1328   1.266       .  A
O1320      V1324   1.901       .  S
O1320      C1327   1.265       .  A
O1321      V1324   1.912       .  S
O1321      C1326   1.267       .  A
O1322      V1324   1.911       .  S
O1322      C1325   1.267       .  A
V1323      V1324   2.083       .  T
C1325      C2193   1.494       .  S
C1326      C2292   1.489       .  S
C1327      C2220   1.481       .  S
C1328      C2229   1.479       .  S
O1329      C2555   1.267       .  A
O1330      V1337   1.911   1_565  S
O1330      C3772   1.266       .  A
O1331      V1337   1.903   1_565  S
O1331      C1341   1.265       .  A
O1332      C1342   1.264       .  A
O1333      C3774   1.266       .  A
O1334      V1338   1.889   1_565  S
O1334      C3773   1.263       .  A
O1336      V1338   1.913       .  S
O1336      C1339   1.267       .  A
V1337      V3770   2.085   1_545  T
V1338      V3769   2.085       .  T
C1339      O2545   1.267       .  A
C1339      C2184   1.493       .  S
C1340      O3762   1.266   1_465  A
C1340      C2169   1.493       .  S
C1341      O3766   1.263       .  A
C1341      C2148   1.480       .  S
C1342      O3765   1.265       .  A
C1342      C2157   1.482       .  S
O1343      V1351   1.910       .  S
O1343      C3785   1.267       .  A
O1344      V1351   1.912       .  S
O1344      C3786   1.267       .  A
O1345      V1351   1.895       .  S
O1345      C1355   1.264       .  A
O1346      V1351   1.896       .  S
O1346      C1356   1.264       .  A
O1347      V1352   1.896       .  S
O1347      C3788   1.264       .  A
O1348      V1352   1.903       .  S
O1348      C3787   1.265       .  A
O1349      V1352   1.912       .  S
O1349      C1354   1.267       .  A
O1350      V1352   1.916       .  S
O1350      C1353   1.268       .  A
V1351      V3784   2.084       .  T
V1352      V3783   2.084       .  T
C1353      O3775   1.268       .  A
C1353      C2133   1.502       .  S
C1354      O3776   1.267       .  A
C1354      C2121   1.494       .  S
C1355      O3780   1.265       .  A
C1355      C2160   1.481       .  S
C1356      O3779   1.264       .  A
C1356      C2145   1.481       .  S
O1358      V1365   1.913       .  S
O1358      C1368   1.266       .  A
O1359      V1365   1.904       .  S
O1359      C1369   1.266       .  A
O1360      C1370   1.265       .  A
O1361      C1370   1.262       .  A
O1362      V1366   1.896       .  S
O1362      C1369   1.263       .  A
O1364      V1366   1.918       .  S
O1364      C1367   1.268       .  A
V1365      V1366   2.083       .  T
C1367      C2109   1.503       .  S
C1368      C2097   1.497       .  S
C1369      C2085   1.490       .  S
C1370      C2076   1.474       .  S
O1371      V1379   1.914       .  S
O1371      C1381   1.268       .  A
O1372      V1379   1.917       .  S
O1372      C1382   1.268       .  A
O1373      V1379   1.892       .  S
O1373      C1383   1.263       .  A
O1374      V1379   1.896       .  S
O1374      C1384   1.265       .  A
O1375      V1380   1.903       .  S
O1375      C1384   1.265       .  A
O1376      V1380   1.899       .  S
O1376      C1383   1.264       .  A
O1377      V1380   1.908       .  S
O1377      C1382   1.266       .  A
O1378      V1380   1.911       .  S
O1378      C1381   1.267       .  A
V1379      V1380   2.084       .  T
C1381      C2052   1.496       .  S
C1382      C2064   1.496       .  S
C1383      C2073   1.474       .  S
C1384      C2088   1.489       .  S
O1385      C2611   1.265       .  A
O1386      V1393   1.902       .  S
O1386      C3828   1.265       .  A
O1387      V1393   1.903   1_565  S
O1387      C1397   1.266       .  A
O1388      C1398   1.264       .  A
O1389      C3830   1.265       .  A
O1390      V1394   1.898   1_565  S
O1390      C3829   1.264       .  A
O1392      V1394   1.912       .  S
O1392      C1395   1.268       .  A
V1393      V3826   2.086       .  T
V1394      V3825   2.085       .  T
C1395      O2601   1.265       .  A
C1395      C2037   1.493       .  S
C1396      O3818   1.265       .  A
C1396      C2181   1.492       .  S
C1397      O3822   1.263       .  A
C1397      C2013   1.484       .  S
C1398      O3821   1.264       .  A
C1398      C2025   1.476       .  S
O1399      V1407   1.914       .  S
O1399      C3841   1.267       .  A
O1400      V1407   1.910       .  S
O1400      C3842   1.267       .  A
O1401      V1407   1.896       .  S
O1401      C1411   1.264       .  A
O1402      V1407   1.896       .  S
O1402      C1412   1.263       .  A
O1403      V1408   1.904       .  S
O1403      C3844   1.266       .  A
O1404      V1408   1.900       .  S
O1404      C3843   1.263       .  A
O1405      V1408   1.922       .  S
O1405      C1410   1.270       .  A
O1406      V1408   1.921       .  S
O1406      C1409   1.268       .  A
V1407      V3840   2.085       .  T
V1408      V3839   2.085       .  T
C1409      O3831   1.267       .  A
C1409      C2001   1.496       .  S
C1410      O3832   1.267       .  A
C1410      C2136   1.502       .  S
C1411      O3836   1.264       .  A
C1411      C2028   1.475       .  S
C1412      O3835   1.266       .  A
C1412      C2016   1.486       .  S
O1414      V1421   1.906       .  S
O1414      C1424   1.266       .  A
O1415      V1421   1.904       .  S
O1415      C1425   1.265       .  A
O1416      C1426   1.265       .  A
O1417      C1426   1.263       .  A
O1418      V1422   1.900       .  S
O1418      C1425   1.265       .  A
O1420      V1422   1.920       .  S
O1420      C1423   1.270   1_565  A
V1421      V1422   2.083       .  T
C1423      C2112   1.504       .  S
C1424      C1992   1.491       .  S
C1425      C1965   1.480       .  S
C1426      C1977   1.476       .  S
O1427      V1435   1.917       .  S
O1427      C1437   1.267       .  A
O1428      V1435   1.915       .  S
O1428      C1438   1.268       .  A
O1429      V1435   1.903       .  S
O1429      C1439   1.265       .  A
O1430      V1435   1.897       .  S
O1430      C1440   1.264       .  A
O1431      V1436   1.904       .  S
O1431      C1440   1.265       .  A
O1432      V1436   1.901       .  S
O1432      C1439   1.264       .  A
O1433      V1436   1.910       .  S
O1433      C1438   1.267       .  A
O1434      V1436   1.909       .  S
O1434      C1437   1.267       .  A
V1435      V1436   2.085       .  T
C1437      C1953   1.496       .  S
C1438      C2061   1.497       .  S
C1439      C1980   1.479       .  S
C1440      C1968   1.478       .  S
O1441      V3881   1.919       .  S
O1441      C2667   1.269       .  A
O1442      V1449   1.916       .  S
O1443      V1449   1.898       .  S
O1443      C1453   1.263       .  A
O1444      V3881   1.891   1_455  S
O1444      C1454   1.263       .  A
O1445      V3882   1.903   1_455  S
O1446      V1450   1.899       .  S
O1447      V3882   1.907       .  S
O1447      C3884   1.267       .  A
O1448      V1450   1.907       .  S
O1448      C1451   1.266       .  A
V1449      O3873   1.918       .  S
V1449      O3876   1.892       .  S
V1450      O3877   1.903       .  S
V1450      O3879   1.907       .  S
C1451      O2657   1.269       .  A
C1451      C1932   1.494       .  S
C1452      O3879   1.267       .  A
C1452      C1944   1.504       .  S
C1453      C1905   1.482       .  S
C1454      C1917   1.475       .  S
O1455      V3895   1.913       .  S
O1455      C3897   1.267       .  A
O1456      V1463   1.915       .  S
O1456      C1466   1.268       .  A
O1457      V1463   1.900   1_455  S
O1457      C1467   1.265       .  A
O1458      V3895   1.897       .  S
O1458      C1468   1.264       .  A
O1459      V3896   1.897       .  S
O1459      C1468   1.263       .  A
O1460      V1464   1.893   1_455  S
O1460      C1467   1.263       .  A
O1461      V3896   1.909       .  S
O1461      C3898   1.267       .  A
O1462      V1464   1.910       .  S
O1462      C1465   1.267       .  A
V1463      O3887   1.912       .  S
V1463      O3890   1.898       .  S
V1463      V1464   2.085       .  T
V1464      O3891   1.898       .  S
V1464      O3893   1.908       .  S
C1465      O3887   1.267       .  A
C1465      C1884   1.493   1_655  S
C1466      O3893   1.267       .  A
C1466      C1896   1.496       .  S
C1467      C1869   1.482       .  S
C1468      C1857   1.474       .  S
O1469      V1477   1.922       .  S
O1470      V1477   1.919       .  S
O1471      V1477   1.891       .  S
O1471      C1481   1.263       .  A
O1472      V1477   1.897       .  S
O1472      C1482   1.264       .  A
O1473      V1478   1.900       .  S
O1474      V1478   1.900       .  S
O1475      V1478   1.905       .  S
O1475      C1480   1.266       .  A
O1476      V1478   1.909       .  S
O1476      C1479   1.267       .  A
C1479      C1848   1.501       .  S
C1480      C1833   1.495       .  S
C1481      C1908   1.473       .  S
C1482      C1920   1.478       .  S
O1483      V1491   1.905       .  S
O1483      C1493   1.265       .  A
O1484      V1491   1.910       .  S
O1484      C1494   1.267       .  A
O1485      V1491   1.893       .  S
O1485      C1495   1.263       .  A
O1486      V1491   1.890       .  S
O1486      C1496   1.264       .  A
O1487      V1492   1.901       .  S
O1487      C1496   1.264       .  A
O1488      V1492   1.901       .  S
O1488      C1495   1.264       .  A
O1489      V1492   1.922       .  S
O1489      C1494   1.270       .  A
O1490      V1492   1.920       .  S
O1490      C1493   1.269       .  A
V1491      V1492   2.084       .  T
C1493      C1821   1.497       .  S
C1494      C1812   1.502       .  S
C1495      C1860   1.473       .  S
C1496      C1872   1.480       .  S
O1497      V3937   1.905       .  S
O1497      C2723   1.265       .  A
O1498      V1505   1.910       .  S
O1499      V1505   1.894   1_455  S
O1499      C1509   1.263       .  A
O1500      V3937   1.897       .  S
O1500      C1510   1.264       .  A
O1501      V3938   1.897       .  S
O1502      V1506   1.891   1_455  S
O1503      V3938   1.910       .  S
O1503      C3940   1.268       .  A
O1504      V1506   1.912       .  S
O1504      C1507   1.268       .  A
V1505      O3929   1.907       .  S
V1505      O3932   1.896       .  S
V1506      O3933   1.897       .  S
V1506      O3935   1.911       .  S
C1507      O2713   1.266       .  A
C1507      C1941   1.499       .  S
C1508      O3935   1.268       .  A
C1508      C2172   1.495       .  S
C1509      C1797   1.475       .  S
C1510      C1788   1.478       .  S
O1511      V3951   1.917       .  S
O1511      C3953   1.268       .  A
O1512      V1519   1.913   1_455  S
O1512      C1522   1.268       .  A
O1513      V1519   1.890   1_455  S
O1513      C1523   1.263       .  A
O1514      V3951   1.899       .  S
O1514      C1524   1.265       .  A
O1515      V3952   1.894       .  S
O1515      C1524   1.263       .  A
O1516      V1520   1.894   1_455  S
O1516      C1523   1.263       .  A
O1517      V3952   1.911       .  S
O1517      C3954   1.267       .  A
O1518      V1520   1.907       .  S
O1518      C1521   1.266       .  A
V1519      O3943   1.916       .  S
V1519      O3946   1.901       .  S
V1519      V1520   2.085       .  T
V1520      O3947   1.893       .  S
V1520      O3949   1.910   1_655  S
C1521      O3943   1.268       .  A
C1521      C1893   1.496       .  S
C1522      O3949   1.266       .  A
C1522      C2124   1.494       .  S
C1523      C1773   1.475       .  S
C1524      C1761   1.484       .  S
O1525      V1533   1.919       .  S
O1526      V1533   1.923       .  S
O1527      V1533   1.897       .  S
O1527      C1537   1.263       .  A
O1528      V1533   1.892       .  S
O1528      C1538   1.262       .  A
O1529      V1534   1.897       .  S
O1530      V1534   1.899       .  S
O1531      V1534   1.912       .  S
O1531      C1536   1.268       .  A
O1532      V1534   1.913       .  S
O1532      C1535   1.267       .  A
C1535      C2100   1.500       .  S
C1536      C1845   1.504       .  S
C1537      C1785   1.477       .  S
C1538      C1800   1.477       .  S
O1539      V1547   1.907       .  S
O1539      C1549   1.265       .  A
O1540      V1547   1.907       .  S
O1540      C1550   1.266       .  A
O1541      V1547   1.904       .  S
O1541      C1551   1.267       .  A
O1542      V1547   1.897       .  S
O1542      C1552   1.265       .  A
O1543      V1548   1.888       .  S
O1543      C1552   1.261       .  A
O1544      V1548   1.890       .  S
O1544      C1551   1.261       .  A
O1545      V1548   1.919       .  S
O1545      C1550   1.269       .  A
O1546      V1548   1.918       .  S
O1546      C1549   1.269       .  A
V1547      V1548   2.085       .  T
C1549      C2049   1.493       .  S
C1550      C1824   1.495       .  S
C1551      C1764   1.486       .  S
C1552      C1776   1.478       .  S
O1553      V3993   1.904       .  S
O1553      C2779   1.266       .  A
O1554      V1561   1.905       .  S
O1555      V1561   1.898   1_455  S
O1555      C1565   1.265       .  A
O1556      V3993   1.900       .  S
O1556      C1566   1.264       .  A
O1557      V3994   1.902       .  S
O1558      V1562   1.900   1_455  S
O1559      V3994   1.919       .  S
O1559      C3996   1.268       .  A
O1560      V1562   1.923       .  S
O1560      C1563   1.270       .  A
V1561      O3985   1.903       .  S
V1561      O3988   1.901       .  S
V1562      O3989   1.901       .  S
V1562      O3991   1.917       .  S
C1563      O2769   1.266       .  A
C1563      C2277   1.502       .  S
C1564      O3991   1.268       .  A
C1564      C1929   1.493       .  S
C1565      C1752   1.477       .  S
C1566      C1740   1.481       .  S
O1567      V4007   1.920       .  S
O1567      C4009   1.269       .  A
O1568      V1575   1.920       .  S
O1568      C1578   1.269       .  A
O1569      V1575   1.892   1_455  S
O1569      C1579   1.263       .  A
O1570      V4007   1.889       .  S
O1570      C1580   1.262       .  A
O1571      V4008   1.900       .  S
O1571      C1580   1.265       .  A
O1572      V1576   1.898   1_455  S
O1572      C1579   1.264       .  A
O1573      V4008   1.906       .  S
O1573      C4010   1.265       .  A
O1574      V1576   1.905       .  S
O1574      C1577   1.266       .  A
V1575      O3999   1.918       .  S
V1575      O4002   1.888       .  S
V1575      V1576   2.085       .  T
V1576      O4003   1.899       .  S
V1576      O4005   1.904       .  S
C1577      O3999   1.269       .  A
C1577      C2244   1.499       .  S
C1578      O4005   1.265       .  A
C1578      C1881   1.495       .  S
C1579      C1725   1.479       .  S
C1580      C1713   1.477       .  S
O1581      V1589   1.917       .  S
O1582      V1589   1.923       .  S
O1583      V1589   1.894       .  S
O1583      C1593   1.263       .  A
O1584      V1589   1.902       .  S
O1584      C1594   1.266       .  A
O1585      V1590   1.895       .  S
O1586      V1590   1.895       .  S
O1587      V1590   1.903       .  S
O1587      C1592   1.266       .  A
O1588      V1590   1.907       .  S
O1588      C1591   1.267       .  A
C1591      C1836   1.493       .  S
C1592      C2208   1.496       .  S
C1593      C1737   1.468       .  S
C1594      C1749   1.481       .  S
O1595      V1603   1.903       .  S
O1595      C1605   1.265       .  A
O1596      V1603   1.903       .  S
O1596      C1606   1.265       .  A
O1597      V1603   1.893       .  S
O1597      C1607   1.263       .  A
O1598      V1603   1.897       .  S
O1598      C1608   1.265       .  A
O1599      V1604   1.899       .  S
O1599      C1608   1.264       .  A
O1600      V1604   1.899       .  S
O1600      C1607   1.264       .  A
O1601      V1604   1.921       .  S
O1601      C1606   1.269       .  A
O1602      V1604   1.923       .  S
O1602      C1605   1.270       .  A
V1603      V1604   2.085       .  T
C1605      C1809   1.498       .  S
C1606      C2196   1.495       .  S
C1607      C1716   1.475       .  S
C1608      C1728   1.481       .  S
O1609      C2835   1.267       .  A
O1610      V1617   1.909       .  S
O1610      C4052   1.267       .  A
O1611      V1617   1.905       .  S
O1611      C1621   1.266       .  A
O1612      C1622   1.265       .  A
O1613      C4054   1.265       .  A
O1614      V1618   1.900       .  S
O1614      C4053   1.264       .  A
O1616      V1618   1.917       .  S
O1616      C1619   1.268       .  A
V1617      V4050   2.084       .  T
V1618      V4049   2.084       .  T
C1619      O2825   1.266       .  A
C1619      C2421   1.495       .  S
C1620      O4042   1.267       .  A
C1620      C2040   1.501       .  S
C1621      O4046   1.264       .  A
C1621      C1689   1.484       .  S
C1622      O4045   1.265       .  A
C1622      C1701   1.481       .  S
O1623      V1631   1.905       .  S
O1623      C4065   1.266       .  A
O1624      V1631   1.911       .  S
O1624      C4066   1.265       .  A
O1625      V1631   1.905       .  S
O1625      C1635   1.266       .  A
O1626      V1631   1.904       .  S
O1626      C1636   1.266       .  A
O1627      V1632   1.899       .  S
O1627      C4068   1.265       .  A
O1628      V1632   1.896       .  S
O1628      C4067   1.263       .  A
O1629      V1632   1.924       .  S
O1629      C1634   1.269       .  A
O1630      V1632   1.920       .  S
O1630      C1633   1.269       .  A
V1631      V4064   2.083       .  T
V1632      V4063   2.082       .  T
C1633      O4055   1.267       .  A
C1633      C2376   1.498       .  S
C1634      O4056   1.267       .  A
C1634      C2004   1.498       .  S
C1635      O4060   1.263       .  A
C1635      C1704   1.482       .  S
C1636      O4059   1.264       .  A
C1636      C1692   1.479       .  S
O1638      V1645   1.897       .  S
O1638      C1648   1.264       .  A
O1639      V1645   1.898   1_565  S
O1639      C1649   1.265       .  A
O1640      C1650   1.264       .  A
O1641      C1650   1.265       .  A
O1642      V1646   1.902   1_565  S
O1642      C1649   1.264       .  A
O1644      V1646   1.917       .  S
O1644      C1647   1.269       .  A
V1645      V1646   2.086       .  T
C1647      C1989   1.492       .  S
C1648      C2349   1.490       .  S
C1649      C1665   1.479       .  S
C1650      C1677   1.481       .  S
O1651      V1659   1.903       .  S
O1651      C1661   1.265       .  A
O1652      V1659   1.903       .  S
O1652      C1662   1.266       .  A
O1653      V1659   1.901       .  S
O1653      C1663   1.264       .  A
O1654      V1659   1.900       .  S
O1654      C1664   1.265       .  A
O1655      V1660   1.905       .  S
O1655      C1664   1.264       .  A
O1656      V1660   1.901       .  S
O1656      C1663   1.265       .  A
O1657      V1660   1.918       .  S
O1657      C1662   1.269       .  A
O1658      V1660   1.919       .  S
O1658      C1661   1.268       .  A
V1659      V1660   2.084       .  T
C1661      C1956   1.493       .  S
C1662      C2304   1.497       .  S
C1663      C1680   1.482       .  S
C1664      C1668   1.482       .  S
C1665      C1666   1.402       .  A
C1665      C1670   1.415       .  A
C1666      C1667   1.397       .  A
C1666      H1675   1.084       .  S
C1667      C1668   1.414       .  A
C1667      S1671   1.803       .  S
C1668      C1669   1.406       .  A
C1669      C1670   1.404       .  A
C1669      H1676   1.084       .  S
C1670      S1672   1.804       .  S
S1671      H1674   1.406       .  S
S1672      H1673   1.407       .  S
C1677      C1678   1.402       .  A
C1677      C1682   1.416       .  A
C1678      C1679   1.397       .  A
C1678      H1687   1.085       .  S
C1679      C1680   1.412       .  A
C1679      S1683   1.795       .  S
C1680      C1681   1.404       .  A
C1681      C1682   1.402       .  A
C1681      H1688   1.085       .  S
C1682      S1684   1.802       .  S
S1683      H1686   1.407       .  S
S1684      H1685   1.407       .  S
C1689      C1690   1.404       .  A
C1689      C4126   1.415       .  A
C1690      C1691   1.402       .  A
C1690      H1699   1.084       .  S
C1691      C1692   1.415       .  A
C1691      S1695   1.803       .  S
C1692      C4125   1.402       .  A
C1693      C4124   1.402       .  A
C1693      C1694   1.398       .  A
C1693      H1700   1.085       .  S
C1694      C4121   1.415       .  A
C1694      S1696   1.794       .  S
S1695      H1698   1.406       .  S
S1696      H1697   1.404       .  S
C1701      C4134   1.402       .  A
C1701      C1706   1.414       .  A
C1702      C4133   1.402       .  A
C1702      C1703   1.400       .  A
C1702      H1711   1.085       .  S
C1703      C4136   1.416       .  A
C1703      S1707   1.801       .  S
C1704      C4135   1.417       .  A
C1704      C1705   1.403       .  A
C1705      C1706   1.399       .  A
C1705      H1712   1.084       .  S
C1706      S1708   1.800       .  S
S1707      H1710   1.407       .  S
S1708      H1709   1.406       .  S
C1713      C1714   1.406       .  A
C1713      C1718   1.413       .  A
C1714      C1715   1.398       .  A
C1714      H1723   1.084       .  S
C1715      C1716   1.414       .  A
C1715      S1719   1.804       .  S
C1716      C1717   1.404       .  A
C1717      C1718   1.397       .  A
C1717      H1724   1.084       .  S
C1718      S1720   1.803       .  S
S1719      H1722   1.407       .  S
S1720      H1721   1.408       .  S
C1725      C1726   1.404       .  A
C1725      C1730   1.413       .  A
C1726      C1727   1.400       .  A
C1726      H1735   1.082       .  S
C1727      C1728   1.414       .  A
C1727      S1731   1.806       .  S
C1728      C1729   1.405       .  A
C1729      C1730   1.402       .  A
C1729      H1736   1.082       .  S
C1730      S1732   1.809       .  S
S1731      H1734   1.407       .  S
S1732      H1733   1.407       .  S
C1737      C1738   1.397       .  A
C1738      C1739   1.393       .  A
C1738      H1747   1.084       .  S
C1739      S1743   1.787       .  S
C1740      C1741   1.404       .  A
C1741      C1742   1.400       .  A
C1741      H1748   1.083       .  S
C1742      S1744   1.803       .  S
S1743      H1746   1.395       .  S
S1744      H1745   1.407       .  S
C1749      C1750   1.406       .  A
C1750      C1751   1.401       .  A
C1750      H1759   1.084       .  S
C1751      S1755   1.803       .  S
C1752      C1753   1.401       .  A
C1753      C1754   1.397       .  A
C1753      H1760   1.084       .  S
C1754      S1756   1.798       .  S
S1755      H1758   1.406       .  S
S1756      H1757   1.407       .  S
C1761      C1762   1.405       .  A
C1761      C1766   1.415       .  A
C1762      C1763   1.402       .  A
C1762      H1771   1.081       .  S
C1763      C1764   1.419       .  A
C1763      S1767   1.811       .  S
C1764      C1765   1.404       .  A
C1765      C1766   1.401       .  A
C1765      H1772   1.081       .  S
C1766      S1768   1.810       .  S
S1767      H1770   1.407       .  S
S1768      H1769   1.406       .  S
C1773      C1774   1.403       .  A
C1773      C1778   1.414       .  A
C1774      C1775   1.399       .  A
C1774      H1783   1.082       .  S
C1775      C1776   1.416       .  A
C1775      S1779   1.811       .  S
C1776      C1777   1.404       .  A
C1777      C1778   1.396       .  A
C1777      H1784   1.084       .  S
C1778      S1780   1.803       .  S
S1779      H1782   1.407       .  S
S1780      H1781   1.408       .  S
C1785      C1790   1.415       .  A
C1786      C1787   1.398       .  A
C1786      H1795   1.084       .  S
C1787      C1788   1.415       .  A
C1787      S1791   1.804       .  S
C1789      C1790   1.399       .  A
C1789      H1796   1.085       .  S
C1790      S1792   1.803       .  S
S1791      H1794   1.408       .  S
S1792      H1793   1.407       .  S
C1797      C1802   1.414       .  A
C1798      C1799   1.394       .  A
C1798      H1807   1.084       .  S
C1799      C1800   1.414       .  A
C1799      S1803   1.803       .  S
C1801      C1802   1.397       .  A
C1801      H1808   1.085       .  S
C1802      S1804   1.803       .  S
S1803      H1806   1.405       .  S
S1804      H1805   1.408       .  S
C1809      C1810   1.406       .  A
C1809      C1814   1.418       .  A
C1810      C1811   1.410   1_556  A
C1810      H1819   1.083       .  S
C1811      C1812   1.418       .  A
C1811      S1815   1.794       .  S
C1812      C1813   1.405       .  A
C1813      C1814   1.405   1_554  A
C1813      H1820   1.083       .  S
C1814      S1816   1.802       .  S
S1815      H1818   1.407       .  S
S1816      H1817   1.407       .  S
C1821      C1822   1.406       .  A
C1821      C1826   1.417       .  A
C1822      C1823   1.408       .  A
C1822      H1831   1.085       .  S
C1823      C1824   1.416       .  A
C1823      S1827   1.802       .  S
C1824      C1825   1.406       .  A
C1825      C1826   1.409       .  A
C1825      H1832   1.085       .  S
C1826      S1828   1.809       .  S
S1827      H1830   1.407       .  S
S1828      H1829   1.407       .  S
C1833      C1838   1.416       .  A
C1834      C1835   1.410   1_554  A
C1834      H1843   1.083       .  S
C1835      S1839   1.802       .  S
C1836      C1837   1.404       .  A
C1837      C1838   1.403   1_556  A
C1837      H1844   1.084       .  S
C1838      S1840   1.803       .  S
S1839      H1842   1.406       .  S
S1840      H1841   1.407       .  S
C1845      C1850   1.419       .  A
C1846      C1847   1.413       .  A
C1846      H1855   1.085       .  S
C1847      S1851   1.802       .  S
C1848      C1849   1.406       .  A
C1849      C1850   1.406       .  A
C1849      H1856   1.084       .  S
C1850      S1852   1.803       .  S
S1851      H1854   1.406       .  S
S1852      H1853   1.408       .  S
C1857      C1858   1.402       .  A
C1857      C1862   1.414       .  A
C1858      C1859   1.397       .  A
C1858      H1867   1.085       .  S
C1859      C1860   1.414       .  A
C1859      S1863   1.804       .  S
C1860      C1861   1.402       .  A
C1861      C1862   1.399       .  A
C1861      H1868   1.085       .  S
C1862      S1864   1.803       .  S
S1863      H1866   1.407       .  S
S1864      H1865   1.406       .  S
C1869      C1870   1.406       .  A
C1869      C1874   1.416       .  A
C1870      C1871   1.400       .  A
C1870      H1879   1.082       .  S
C1871      C1872   1.414       .  A
C1871      S1875   1.803       .  S
C1872      C1873   1.402       .  A
C1873      C1874   1.398       .  A
C1873      H1880   1.081       .  S
C1874      S1876   1.809       .  S
S1875      H1878   1.408       .  S
S1876      H1877   1.406       .  S
C1881      C1882   1.404   1_655  A
C1881      C4318   1.416       .  A
C1882      C1883   1.403   1_556  A
C1882      H1891   1.085       .  S
C1883      C1884   1.415       .  A
C1883      S1887   1.795       .  S
C1884      C4317   1.404   1_455  A
C1885      C4316   1.404       .  A
C1885      C1886   1.406   1_554  A
C1885      H1892   1.085       .  S
C1886      C4313   1.416       .  A
C1886      S1888   1.789       .  S
S1887      H1890   1.407       .  S
S1888      H1889   1.407       .  S
C1893      C4326   1.405       .  A
C1893      C1898   1.417   1_655  A
C1894      C4325   1.406       .  A
C1894      C1895   1.404       .  A
C1894      H1903   1.084       .  S
C1895      C4328   1.417       .  A
C1895      S1899   1.802       .  S
C1896      C4327   1.416       .  A
C1896      C1897   1.407   1_655  A
C1897      C1898   1.413       .  A
C1897      H1904   1.083       .  S
C1898      S1900   1.808       .  S
S1899      H1902   1.407       .  S
S1900      H1901   1.407       .  S
C1905      C1910   1.417       .  A
C1906      C1907   1.399       .  A
C1906      H1915   1.085       .  S
C1907      S1911   1.803       .  S
C1908      C1909   1.400       .  A
C1909      C1910   1.395       .  A
C1909      H1916   1.084       .  S
C1910      S1912   1.795       .  S
S1911      H1914   1.407       .  S
S1912      H1913   1.393       .  S
C1917      C1918   1.402       .  A
C1918      C1919   1.394       .  A
C1918      H1927   1.085       .  S
C1919      C1920   1.413       .  A
C1919      S1923   1.798       .  S
C1921      C1922   1.400       .  A
C1921      H1928   1.083       .  S
C1922      S1924   1.803       .  S
S1923      H1926   1.405       .  S
S1924      H1925   1.408       .  S
C1929      C4366   1.415       .  A
C1930      C1931   1.410   1_556  A
C1930      H1939   1.083       .  S
C1931      C4364   1.417   1_455  A
C1931      S1935   1.802       .  S
C1932      C4363   1.417       .  A
C1933      C1934   1.404   1_554  A
C1933      H1940   1.084       .  S
C1934      C4361   1.416       .  A
C1934      S1936   1.803       .  S
S1935      H1938   1.406       .  S
S1936      H1937   1.407       .  S
C1941      C4374   1.407       .  A
C1942      C4373   1.406       .  A
C1942      C1943   1.406       .  A
C1942      H1951   1.084       .  S
C1943      S1947   1.796       .  S
C1944      C4377   1.407       .  A
C1945      C4376   1.408       .  A
C1945      C1946   1.406       .  A
C1945      H1952   1.084   1_655  S
C1946      S1948   1.800   1_655  S
S1947      H1950   1.402       .  S
S1948      H1949   1.408   1_455  S
C1953      C1954   1.409       .  A
C1953      C1958   1.415       .  A
C1954      C1955   1.411       .  A
C1954      H1963   1.084       .  S
C1955      C1956   1.417       .  A
C1955      S1959   1.803       .  S
C1956      C1957   1.404       .  A
C1957      C1958   1.401       .  A
C1957      H1964   1.085       .  S
C1958      S1960   1.801       .  S
S1959      H1962   1.405       .  S
S1960      H1961   1.406       .  S
C1965      C1966   1.403       .  A
C1965      C1970   1.415       .  A
C1966      C1967   1.398       .  A
C1966      H1975   1.084       .  S
C1967      C1968   1.414       .  A
C1967      S1971   1.803       .  S
C1968      C1969   1.404       .  A
C1969      C1970   1.402       .  A
C1969      H1976   1.084       .  S
C1970      S1972   1.801       .  S
S1971      H1974   1.406       .  S
S1972      H1973   1.407       .  S
C1977      C1978   1.403       .  A
C1977      C1982   1.412       .  A
C1978      C1979   1.400       .  A
C1978      H1987   1.084       .  S
C1979      C1980   1.414       .  A
C1979      S1983   1.801       .  S
C1980      C1981   1.404       .  A
C1981      C1982   1.399       .  A
C1981      H1988   1.082       .  S
C1982      S1984   1.804       .  S
S1983      H1986   1.407       .  S
S1984      H1985   1.408       .  S
C1989      C1990   1.405   1_545  A
C1990      C1991   1.403       .  A
C1990      H1999   1.084       .  S
C1991      C1992   1.414       .  A
C1991      S1995   1.804       .  S
C1993      C1994   1.410       .  A
C1993      H2000   1.084       .  S
C1994      S1996   1.803       .  S
S1995      H1998   1.407       .  S
S1996      H1997   1.407       .  S
C2001      C4434   1.404       .  A
C2001      C2006   1.415       .  A
C2002      C4433   1.404       .  A
C2002      C2003   1.408       .  A
C2002      H2011   1.083       .  S
C2003      C4436   1.416       .  A
C2003      S2007   1.801       .  S
C2004      C4435   1.417       .  A
C2004      C2005   1.405       .  A
C2005      C2006   1.409       .  A
C2005      H2012   1.084       .  S
C2006      S2008   1.799       .  S
S2007      H2010   1.403       .  S
S2008      H2009   1.406       .  S
C2013      C2014   1.403       .  A
C2013      C4450   1.415       .  A
C2014      C2015   1.400       .  A
C2014      H2023   1.083       .  S
C2015      C2016   1.419       .  A
C2015      S2019   1.805       .  S
C2016      C4449   1.406       .  A
C2017      C4448   1.407       .  A
C2017      C2018   1.401       .  A
C2017      H2024   1.083       .  S
C2018      C4445   1.415       .  A
C2018      S2020   1.803       .  S
S2019      H2022   1.401       .  S
S2020      H2021   1.408       .  S
C2025      C2026   1.403       .  A
C2025      C4462   1.414       .  A
C2026      C2027   1.397       .  A
C2026      H2035   1.084       .  S
C2027      C2028   1.413       .  A
C2027      S2031   1.804       .  S
C2028      C4461   1.404       .  A
C2029      C4460   1.404       .  A
C2029      C2030   1.402       .  A
C2029      H2036   1.085       .  S
C2030      C4457   1.415       .  A
C2030      S2032   1.804       .  S
S2031      H2034   1.407       .  S
S2032      H2033   1.406       .  S
C2037      C4474   1.416       .  A
C2038      C2039   1.407       .  A
C2038      H2047   1.084       .  S
C2039      S2043   1.796       .  S
C2040      C4473   1.409   1_565  A
C2041      C4472   1.408   1_545  A
C2041      C2042   1.405       .  A
C2041      H2048   1.084       .  S
C2042      C4469   1.416       .  A
C2042      S2044   1.803       .  S
S2043      H2046   1.392       .  S
C2049      C2050   1.406       .  A
C2049      C2054   1.415       .  A
C2050      C2051   1.406       .  A
C2050      H2059   1.085       .  S
C2051      C2052   1.416       .  A
C2051      S2055   1.803       .  S
C2052      C2053   1.408       .  A
C2053      C2054   1.408       .  A
C2053      H2060   1.084       .  S
C2054      S2056   1.803       .  S
S2055      H2058   1.407       .  S
S2056      H2057   1.407       .  S
C2061      C2062   1.406       .  A
C2061      C2066   1.418       .  A
C2062      C2063   1.406       .  A
C2062      H2071   1.083       .  S
C2063      C2064   1.416       .  A
C2063      S2067   1.803       .  S
C2064      C2065   1.407       .  A
C2065      C2066   1.409       .  A
C2065      H2072   1.083       .  S
C2066      S2068   1.803       .  S
S2067      H2070   1.408       .  S
S2068      H2069   1.407       .  S
C2073      C2074   1.405       .  A
C2073      C2078   1.413       .  A
C2074      C2075   1.404       .  A
C2074      H2083   1.084       .  S
C2075      C2076   1.412       .  A
C2075      S2079   1.808       .  S
C2076      C2077   1.402       .  A
C2077      C2078   1.393       .  A
C2077      H2084   1.084       .  S
C2078      S2080   1.804       .  S
S2079      H2082   1.407       .  S
S2080      H2081   1.408       .  S
C2085      C2086   1.407       .  A
C2085      C2090   1.418       .  A
C2086      C2087   1.402       .  A
C2086      H2095   1.084       .  S
C2087      C2088   1.417       .  A
C2087      S2091   1.802       .  S
C2088      C2089   1.405       .  A
C2089      C2090   1.398       .  A
C2089      H2096   1.084       .  S
C2090      S2092   1.802       .  S
S2091      H2094   1.408       .  S
S2092      H2093   1.408       .  S
C2097      C2098   1.407       .  A
C2098      C2099   1.411       .  A
C2098      H2107   1.081       .  S
C2099      C2100   1.418       .  A
C2099      S2103   1.802       .  S
C2101      C2102   1.407       .  A
C2101      H2108   1.083       .  S
C2102      S2104   1.799       .  S
S2103      H2106   1.407       .  S
S2104      H2105   1.403       .  S
C2109      C2114   1.420       .  A
C2110      C2111   1.408       .  A
C2110      H2119   1.081       .  S
C2111      C2112   1.420   1_565  A
C2111      S2115   1.810       .  S
C2113      C2114   1.413       .  A
C2113      H2120   1.083       .  S
C2114      S2116   1.802       .  S
S2115      H2118   1.406       .  S
S2116      H2117   1.407       .  S
C2121      C2122   1.406       .  A
C2121      C4558   1.416   1_455  A
C2122      C2123   1.406       .  A
C2122      H2131   1.083       .  S
C2123      C2124   1.417       .  A
C2123      S2127   1.803       .  S
C2124      C4557   1.406   1_455  A
C2125      C4556   1.408       .  A
C2125      C2126   1.409       .  A
C2125      H2132   1.084       .  S
C2126      C4553   1.415       .  A
C2126      S2128   1.803       .  S
S2127      H2130   1.406       .  S
S2128      H2129   1.407       .  S
C2133      C2134   1.408       .  A
C2133      C4570   1.419       .  A
C2134      C2135   1.410       .  A
C2134      H2143   1.083       .  S
C2135      C2136   1.418       .  A
C2135      S2139   1.800       .  S
C2136      C4569   1.407       .  A
C2137      C4568   1.406       .  A
C2137      C2138   1.406       .  A
C2137      H2144   1.083       .  S
C2138      C4565   1.418       .  A
C2138      S2140   1.802       .  S
S2139      H2142   1.407       .  S
S2140      H2141   1.408       .  S
C2145      C2146   1.406       .  A
C2145      C4582   1.415       .  A
C2146      C2147   1.399       .  A
C2146      H2155   1.084       .  S
C2147      C2148   1.415       .  A
C2147      S2151   1.802       .  S
C2148      C4581   1.405       .  A
C2149      C4580   1.405       .  A
C2149      C2150   1.396       .  A
C2149      H2156   1.084       .  S
C2150      C4577   1.415       .  A
C2150      S2152   1.803       .  S
S2151      H2154   1.407       .  S
S2152      H2153   1.408       .  S
C2157      C2158   1.405       .  A
C2157      C4594   1.415       .  A
C2158      C2159   1.401       .  A
C2158      H2167   1.083       .  S
C2159      C2160   1.415       .  A
C2159      S2163   1.802       .  S
C2160      C4593   1.404       .  A
C2161      C4592   1.404       .  A
C2161      C2162   1.398       .  A
C2161      H2168   1.084   1_455  S
C2162      C4589   1.416       .  A
C2162      S2164   1.803   1_455  S
S2163      H2166   1.407       .  S
S2164      H2165   1.408   1_655  S
C2169      C3386   1.407   1_465  A
C2169      C2174   1.415       .  A
C2170      C3385   1.406       .  A
C2170      C2171   1.408       .  A
C2170      H2179   1.084       .  S
C2171      C3388   1.417       .  A
C2171      S2175   1.803       .  S
C2172      C3387   1.418   1_565  A
C2172      C2173   1.404   1_655  A
C2173      C2174   1.402       .  A
C2173      H2180   1.084       .  S
C2174      S2176   1.801       .  S
S2175      H2178   1.407       .  S
S2176      H2177   1.404       .  S
C2181      C2182   1.407   1_545  A
C2181      C3402   1.416       .  A
C2182      C2183   1.409       .  A
C2182      H2191   1.083       .  S
C2183      C2184   1.418   1_565  A
C2183      S2187   1.803       .  S
C2184      C3401   1.404       .  A
C2185      C3400   1.405       .  A
C2185      C2186   1.402       .  A
C2185      H2192   1.083       .  S
C2186      C3397   1.416       .  A
C2186      S2188   1.803       .  S
S2187      H2190   1.407       .  S
S2188      H2189   1.406       .  S
C2193      C2194   1.407       .  A
C2193      C2198   1.414       .  A
C2194      C2195   1.407       .  A
C2194      H2203   1.084       .  S
C2195      C2196   1.415       .  A
C2195      S2199   1.797       .  S
C2196      C2197   1.406       .  A
C2197      C2198   1.408       .  A
C2197      H2204   1.083       .  S
C2198      S2200   1.808       .  S
S2199      H2202   1.405       .  S
S2200      H2201   1.407       .  S
C2205      C2206   1.405       .  A
C2206      C2207   1.399       .  A
C2206      H2215   1.083       .  S
C2207      C2208   1.414       .  A
C2207      S2211   1.800       .  S
C2209      C2210   1.414       .  A
C2209      H2216   1.083       .  S
C2210      S2212   1.801       .  S
S2211      H2214   1.406       .  S
S2212      H2213   1.407       .  S
C2217      C2218   1.403       .  A
C2217      C2222   1.415       .  A
C2218      C2219   1.404       .  A
C2218      H2227   1.081       .  S
C2219      C2220   1.414       .  A
C2219      S2223   1.808       .  S
C2220      C2221   1.404       .  A
C2221      C2222   1.398       .  A
C2221      H2228   1.083       .  S
C2222      S2224   1.804       .  S
S2223      H2226   1.407       .  S
S2224      H2225   1.407       .  S
C2229      C2230   1.401       .  A
C2229      C2234   1.417       .  A
C2230      C2231   1.393       .  A
C2230      H2239   1.085       .  S
C2231      C2232   1.415       .  A
C2231      S2235   1.801       .  S
C2232      C2233   1.403       .  A
C2233      C2234   1.404       .  A
C2233      H2240   1.083       .  S
C2234      S2236   1.808       .  S
S2235      H2238   1.402       .  S
S2236      H2237   1.407       .  S
C2241      C4674   1.409       .  A
C2241      C2246   1.420   1_655  A
C2242      C4673   1.409       .  A
C2242      C2243   1.412       .  A
C2242      H2251   1.083       .  S
C2243      C4676   1.418       .  A
C2243      S2247   1.802       .  S
C2244      C4675   1.418       .  A
C2244      C2245   1.405   1_655  A
C2245      C2246   1.403       .  A
C2245      H2252   1.085       .  S
C2246      S2248   1.803       .  S
S2247      H2250   1.407       .  S
S2248      H2249   1.408       .  S
C2253      C2258   1.419       .  A
C2254      C2255   1.398       .  A
C2254      H2263   1.084       .  S
C2255      C2256   1.417       .  A
C2255      S2259   1.802       .  S
C2257      C2258   1.399       .  A
C2257      H2264   1.084       .  S
C2258      S2260   1.803       .  S
S2259      H2262   1.408       .  S
S2260      H2261   1.398       .  S
C2265      C2270   1.413       .  A
C2266      C2267   1.396       .  A
C2266      H2275   1.083       .  S
C2267      C2268   1.413       .  A
C2267      S2271   1.803   1_565  S
C2269      C2270   1.396       .  A
C2269      H2276   1.084       .  S
C2270      S2272   1.804       .  S
S2271      H2274   1.407   1_545  S
S2272      H2273   1.407       .  S
C2277      C4710   1.408   1_655  A
C2278      C4709   1.408       .  A
C2278      C2279   1.413       .  A
C2278      H2287   1.083       .  S
C2279      C4712   1.421       .  A
C2279      S2283   1.799       .  S
C2280      C4711   1.420       .  A
C2281      C2282   1.402       .  A
C2281      H2288   1.084       .  S
C2282      S2284   1.802       .  S
S2283      H2286   1.406       .  S
S2284      H2285   1.406       .  S
C2289      C2290   1.406       .  A
C2289      C2294   1.420       .  A
C2290      C2291   1.406       .  A
C2290      H2299   1.084       .  S
C2291      C2292   1.415       .  A
C2291      S2295   1.802       .  S
C2292      C2293   1.403       .  A
C2293      C2294   1.406       .  A
C2293      H2300   1.084       .  S
C2294      S2296   1.802       .  S
S2295      H2298   1.406       .  S
S2296      H2297   1.407       .  S
C2301      C2302   1.406       .  A
C2301      C2306   1.418       .  A
C2302      C2303   1.408       .  A
C2302      H2311   1.084       .  S
C2303      C2304   1.418       .  A
C2303      S2307   1.799       .  S
C2304      C2305   1.405       .  A
C2305      C2306   1.403       .  A
C2305      H2312   1.084       .  S
C2306      S2308   1.803       .  S
S2307      H2310   1.407       .  S
S2308      H2309   1.407       .  S
C2313      C2314   1.404       .  A
C2313      C2318   1.418       .  A
C2314      C2315   1.399       .  A
C2314      H2323   1.085       .  S
C2315      C2316   1.416       .  A
C2315      S2319   1.803       .  S
C2316      C2317   1.402       .  A
C2317      C2318   1.395       .  A
C2317      H2324   1.085       .  S
C2318      S2320   1.802       .  S
S2319      H2322   1.408       .  S
S2320      H2321   1.402       .  S
C2325      C2326   1.405       .  A
C2325      C2330   1.414       .  A
C2326      C2327   1.401       .  A
C2326      H2335   1.085       .  S
C2327      C2328   1.415       .  A
C2327      S2331   1.799       .  S
C2328      C2329   1.405       .  A
C2329      C2330   1.398       .  A
C2329      H2336   1.085       .  S
C2330      S2332   1.803       .  S
S2331      H2334   1.407       .  S
S2332      H2333   1.408       .  S
C2337      C2338   1.406       .  A
C2338      C2339   1.404       .  A
C2338      H2347   1.083       .  S
C2339      C2340   1.414       .  A
C2339      S2343   1.802       .  S
C2341      C2342   1.401       .  A
C2341      H2348   1.080       .  S
C2342      S2344   1.794       .  S
S2343      H2346   1.407       .  S
S2344      H2345   1.406       .  S
C2349      C2354   1.417   1_545  A
C2350      C2351   1.410       .  A
C2350      H2359   1.084       .  S
C2351      S2355   1.802       .  S
C2352      C2353   1.403   1_545  A
C2353      C2354   1.399       .  A
C2353      H2360   1.084       .  S
C2354      S2356   1.803       .  S
S2355      H2358   1.407       .  S
S2356      H2357   1.408       .  S
C2361      C2362   1.405       .  A
C2361      C4798   1.418   1_455  A
C2362      C2363   1.407       .  A
C2362      H2371   1.082       .  S
C2363      C2364   1.418       .  A
C2363      S2367   1.802       .  S
C2364      C4797   1.407       .  A
C2365      C4796   1.407       .  A
C2365      C2366   1.409       .  A
C2365      H2372   1.084       .  S
C2366      C4793   1.418       .  A
C2366      S2368   1.803       .  S
S2367      H2370   1.405       .  S
S2368      H2369   1.407       .  S
C2373      C2374   1.407       .  A
C2373      C4810   1.414       .  A
C2374      C2375   1.410       .  A
C2374      H2383   1.084       .  S
C2375      C2376   1.419       .  A
C2375      S2379   1.804       .  S
C2376      C4809   1.407       .  A
C2377      C4808   1.407       .  A
C2377      C2378   1.404       .  A
C2377      H2384   1.084       .  S
C2378      C4805   1.415       .  A
C2378      S2380   1.803       .  S
S2379      H2382   1.405       .  S
S2380      H2381   1.407       .  S
C2385      C4818   1.406       .  A
C2385      C2390   1.417       .  A
C2386      C4817   1.406       .  A
C2386      C2387   1.400       .  A
C2386      H2395   1.085       .  S
C2387      C2388   1.414       .  A
C2387      S2391   1.802       .  S
C2388      C4821   1.404       .  A
C2389      C4820   1.404       .  A
C2389      C2390   1.394       .  A
C2389      H2396   1.085       .  S
C2390      S2392   1.803       .  S
S2391      H2394   1.408       .  S
S2392      H2393   1.407       .  S
C2397      C2398   1.406       .  A
C2397      C4834   1.417       .  A
C2398      C2399   1.400       .  A
C2398      H2407   1.083       .  S
C2399      C4832   1.418       .  A
C2399      S2403   1.803       .  S
C2400      C4831   1.416       .  A
C2400      C2401   1.404       .  A
C2401      C2402   1.402       .  A
C2401      H2408   1.084       .  S
C2402      C4829   1.415       .  A
C2402      S2404   1.802       .  S
S2403      H2406   1.408       .  S
S2404      H2405   1.408       .  S
C2409      C4842   1.403       .  A
C2410      C4841   1.402       .  A
C2410      C2411   1.407       .  A
C2410      H2419   1.084       .  S
C2411      S2415   1.802       .  S
C2412      C4845   1.407       .  A
C2413      C4844   1.407       .  A
C2413      C2414   1.407       .  A
C2413      H2420   1.083       .  S
C2414      S2416   1.802       .  S
S2415      H2418   1.407       .  S
S2416      H2417   1.405       .  S
C2421      C2422   1.407       .  A
C2421      C3642   1.417   1_565  A
C2422      C2423   1.409       .  A
C2422      H2431   1.084       .  S
C2423      C3640   1.418       .  A
C2423      S2427   1.802       .  S
C2424      C3639   1.420       .  A
C2424      C2425   1.406       .  A
C2425      C2426   1.405       .  A
C2425      H2432   1.084       .  S
C2426      C3637   1.418       .  A
C2426      S2428   1.803       .  S
S2427      H2430   1.408       .  S
S2428      H2429   1.408       .  S
O2433      V3657   1.919       .  S
O2434      V2441   1.917       .  S
O2435      V2441   1.898   1_545  S
O2435      C2445   1.264       .  A
O2436      V3657   1.893       .  S
O2436      C2446   1.262       .  A
O2437      V3658   1.898       .  S
O2438      V2442   1.905   1_545  S
O2439      V3658   1.906       .  S
O2439      C3660   1.266       .  A
O2440      V2442   1.907       .  S
O2440      C2443   1.265       .  A
V2441      O3649   1.919       .  S
V2441      O3652   1.891       .  S
V2442      O3653   1.899       .  S
V2442      O3655   1.906       .  S
C2443      C3625   1.491       .  S
C2444      O3655   1.266       .  A
C2444      C3640   1.495       .  S
C2445      C3613   1.488       .  S
C2446      C3601   1.487       .  S
O2447      V2455   1.911       .  S
O2448      V2455   1.909       .  S
O2449      V2455   1.903       .  S
O2449      C2459   1.265       .  A
O2450      V2455   1.901       .  S
O2450      C2460   1.265       .  A
O2451      V2456   1.890       .  S
O2452      V2456   1.901       .  S
O2453      V2456   1.916       .  S
O2453      C2458   1.268       .  A
O2454      V2456   1.916       .  S
O2454      C2457   1.268       .  A
C2457      C3580   1.493       .  S
C2458      C3589   1.494       .  S
C2459      C3616   1.484       .  S
C2460      C3604   1.483       .  S
O2461      V3685   1.903       .  S
O2461      C3687   1.266       .  A
O2462      V2469   1.909       .  S
O2462      C2472   1.266       .  A
O2463      V2469   1.889       .  S
O2463      C2473   1.261       .  A
O2464      V3685   1.897       .  S
O2464      C2474   1.264       .  A
O2465      V3686   1.901       .  S
O2465      C2474   1.265       .  A
O2466      V2470   1.905       .  S
O2466      C2473   1.267       .  A
O2467      V3686   1.907   1_565  S
O2467      C3688   1.266       .  A
O2468      V2470   1.913       .  S
O2468      C2471   1.267       .  A
V2469      O3677   1.906       .  S
V2469      O3680   1.893       .  S
V2469      V2470   2.084       .  T
V2470      O3681   1.907       .  S
V2470      O3683   1.909       .  S
C2471      O3677   1.267       .  A
C2471      C3568   1.495       .  S
C2472      O3683   1.267       .  A
C2472      C4772   1.492       .  S
C2473      C3529   1.479       .  S
C2474      C3544   1.488       .  S
O2475      V2483   1.916       .  S
O2475      C2485   1.269       .  A
O2476      V2483   1.916       .  S
O2476      C2486   1.268       .  A
O2477      V2483   1.891       .  S
O2477      C2487   1.263       .  A
O2478      V2483   1.890       .  S
O2478      C2488   1.261       .  A
O2479      V2484   1.901       .  S
O2479      C2488   1.266       .  A
O2480      V2484   1.906       .  S
O2480      C2487   1.266       .  A
O2481      V2484   1.901       .  S
O2481      C2486   1.265       .  A
O2482      V2484   1.904       .  S
O2482      C2485   1.265       .  A
V2483      V2484   2.084       .  T
C2485      C3505   1.492       .  S
C2486      C3517   1.494       .  S
C2487      C3541   1.486       .  S
C2488      C3532   1.478       .  S
O2490      V2497   1.916       .  S
O2490      C3716   1.269       .  A
O2491      V2497   1.891       .  S
O2491      C2501   1.263       .  A
O2492      C2502   1.263       .  A
O2493      C3718   1.265       .  A
O2494      V2498   1.890       .  S
O2494      C3717   1.262       .  A
O2496      V2498   1.916       .  S
O2496      C2499   1.269       .  A
V2497      V3714   2.083       .  T
V2498      V3713   2.083       .  T
C2499      C3628   1.499       .  S
C2500      O3706   1.268       .  A
C2500      C3496   1.503       .  S
C2501      O3710   1.263       .  A
C2501      C3481   1.470       .  S
C2502      O3709   1.265       .  A
C2502      C3472   1.485       .  S
O2504      V2511   1.918       .  S
O2504      C2514   1.268       .  A
O2505      V2511   1.890       .  S
O2505      C2515   1.262       .  A
O2506      C2516   1.263       .  A
O2507      C2516   1.266       .  A
O2508      V2512   1.902       .  S
O2508      C2515   1.265       .  A
O2510      V2512   1.909       .  S
O2510      C2513   1.266       .  A
V2511      V2512   2.084       .  T
C2513      C3577   1.498       .  S
C2514      C3457   1.495       .  S
C2515      C3448   1.476       .  S
C2516      C3433   1.480       .  S
O2517      V2525   1.924       .  S
O2517      C3743   1.270       .  A
O2518      V2525   1.924       .  S
O2518      C3744   1.271       .  A
O2519      V2525   1.892       .  S
O2519      C2529   1.261       .  A
O2520      V2525   1.890       .  S
O2520      C2530   1.262       .  A
O2521      V2526   1.895       .  S
O2521      C3746   1.264       .  A
O2522      V2526   1.901       .  S
O2522      C3745   1.267       .  A
O2523      V2526   1.897       .  S
O2523      C2528   1.263       .  A
O2524      V2526   1.897       .  S
O2524      C2527   1.265       .  A
V2525      V3742   2.083       .  T
V2526      V3741   2.084       .  T
C2527      O3733   1.270       .  A
C2527      C3421   1.498       .  S
C2528      O3734   1.270       .  A
C2528      C3553   1.487       .  S
C2529      O3738   1.267       .  A
C2529      C3469   1.485       .  S
C2530      O3737   1.264       .  A
C2530      C3484   1.471       .  S
O2531      V2539   1.906       .  S
O2531      C2541   1.266       .  A
O2532      V2539   1.908       .  S
O2532      C2542   1.266       .  A
O2533      V2539   1.901       .  S
O2533      C2543   1.265       .  A
O2534      V2539   1.897       .  S
O2534      C2544   1.263       .  A
O2535      V2540   1.891       .  S
O2535      C2544   1.264       .  A
O2536      V2540   1.898       .  S
O2536      C2543   1.264       .  A
O2537      V2540   1.911       .  S
O2537      C2542   1.267       .  A
O2538      V2540   1.912       .  S
O2538      C2541   1.267       .  A
V2539      V2540   2.084       .  T
C2541      C3409   1.495       .  S
C2542      C3508   1.490       .  S
C2543      C3436   1.483       .  S
C2544      C3445   1.477       .  S
O2545      V3769   1.906       .  S
O2546      V2553   1.910       .  S
O2547      V2553   1.896       .  S
O2547      C2557   1.264       .  A
O2548      V3769   1.903       .  S
O2548      C2558   1.266       .  A
O2549      V3770   1.902   1_545  S
O2550      V2554   1.894       .  S
O2551      V3770   1.914       .  S
O2551      C3772   1.268       .  A
O2552      V2554   1.913       .  S
O2552      C2555   1.267       .  A
V2553      O3761   1.908       .  S
V2553      O3764   1.897       .  S
V2554      O3765   1.900       .  S
V2554      O3767   1.913       .  S
C2555      C3400   1.494       .  S
C2556      O3767   1.268       .  A
C2556      C3385   1.492       .  S
C2557      C3364   1.475       .  S
C2558      C3373   1.488       .  S
O2559      V2567   1.901       .  S
O2560      V2567   1.904       .  S
O2561      V2567   1.897       .  S
O2561      C2571   1.265       .  A
O2562      V2567   1.896       .  S
O2562      C2572   1.264       .  A
O2563      V2568   1.896       .  S
O2564      V2568   1.905       .  S
O2565      V2568   1.918       .  S
O2565      C2570   1.269       .  A
O2566      V2568   1.921       .  S
O2566      C2569   1.269       .  A
C2569      C3349   1.498       .  S
C2570      C3337   1.493       .  S
C2571      C3376   1.487       .  S
C2572      C3361   1.477       .  S
O2573      V3797   1.907       .  S
O2573      C3799   1.267       .  A
O2574      V2581   1.912       .  S
O2574      C2584   1.266   1_545  A
O2575      V2581   1.906       .  S
O2575      C2585   1.267       .  A
O2576      V3797   1.904       .  S
O2576      C2586   1.266       .  A
O2577      V3798   1.891       .  S
O2577      C2586   1.263       .  A
O2578      V2582   1.897       .  S
O2578      C2585   1.263       .  A
O2579      V3798   1.919       .  S
O2579      C3800   1.269       .  A
O2580      V2582   1.925       .  S
O2580      C2583   1.270       .  A
V2581      O3789   1.903       .  S
V2581      O3792   1.904   1_545  S
V2581      V2582   2.083       .  T
V2582      O3793   1.889   1_545  S
V2582      O3795   1.925   1_545  S
C2583      O3789   1.266       .  A
C2583      C3325   1.506       .  S
C2584      O3795   1.271       .  A
C2584      C3313   1.504       .  S
C2585      C3301   1.492       .  S
C2586      C3292   1.480       .  S
O2587      V2595   1.918       .  S
O2587      C2597   1.268       .  A
O2588      V2595   1.920       .  S
O2588      C2598   1.269       .  A
O2589      V2595   1.897       .  S
O2589      C2599   1.264       .  A
O2590      V2595   1.904       .  S
O2590      C2600   1.266       .  A
O2591      V2596   1.900       .  S
O2591      C2600   1.264       .  A
O2592      V2596   1.898       .  S
O2592      C2599   1.264       .  A
O2593      V2596   1.911       .  S
O2593      C2598   1.267       .  A
O2594      V2596   1.910       .  S
O2594      C2597   1.267       .  A
V2595      V2596   2.083       .  T
C2597      C3268   1.504       .  S
C2598      C3280   1.500       .  S
C2599      C3289   1.481       .  S
C2600      C3304   1.492       .  S
O2601      V3825   1.905       .  S
O2602      V2609   1.902       .  S
O2603      V2609   1.897       .  S
O2603      C2613   1.264       .  A
O2604      V3825   1.901       .  S
O2604      C2614   1.265       .  A
O2605      V3826   1.897       .  S
O2606      V2610   1.903       .  S
O2607      V3826   1.916       .  S
O2607      C3828   1.268       .  A
O2608      V2610   1.914       .  S
O2608      C2611   1.268       .  A
V2609      O3817   1.906       .  S
V2609      O3820   1.895       .  S
V2610      O3821   1.902       .  S
V2610      O3823   1.916       .  S
C2611      C3253   1.493       .  S
C2612      O3823   1.268       .  A
C2612      C3397   1.493       .  S
C2613      C3229   1.481       .  S
C2614      C3241   1.478       .  S
O2615      V2623   1.912       .  S
O2616      V2623   1.908       .  S
O2617      V2623   1.899       .  S
O2617      C2627   1.265       .  A
O2618      V2623   1.902       .  S
O2618      C2628   1.264       .  A
O2619      V2624   1.901       .  S
O2620      V2624   1.898       .  S
O2621      V2624   1.917       .  S
O2621      C2626   1.268       .  A
O2622      V2624   1.921       .  S
O2622      C2625   1.270       .  A
C2625      C3217   1.506       .  S
C2626      C3352   1.500       .  S
C2627      C3244   1.478       .  S
C2628      C3232   1.485       .  S
O2629      V3853   1.906   1_545  S
O2629      C3855   1.266       .  A
O2630      V2637   1.904       .  S
O2630      C2640   1.265       .  A
O2631      V2637   1.906       .  S
O2631      C2641   1.265       .  A
O2632      V3853   1.902   1_545  S
O2632      C2642   1.266       .  A
O2633      V3854   1.898   1_545  S
O2633      C2642   1.264       .  A
O2634      V2638   1.900       .  S
O2634      C2641   1.266       .  A
O2635      V3854   1.920       .  S
O2635      C3856   1.269       .  A
O2636      V2638   1.923       .  S
O2636      C2639   1.270       .  A
V2637      O3845   1.907       .  S
V2637      O3848   1.901       .  S
V2637      V2638   2.083       .  T
V2638      O3849   1.896       .  S
V2638      O3851   1.920       .  S
C2639      O3845   1.266       .  A
C2639      C3328   1.504       .  S
C2640      O3851   1.269       .  A
C2640      C3208   1.493       .  S
C2641      C3181   1.486       .  S
C2642      C3193   1.481       .  S
O2643      V2651   1.919       .  S
O2643      C2653   1.268       .  A
O2644      V2651   1.919       .  S
O2644      C2654   1.269       .  A
O2645      V2651   1.906       .  S
O2645      C2655   1.265       .  A
O2646      V2651   1.899       .  S
O2646      C2656   1.264       .  A
O2647      V2652   1.903       .  S
O2647      C2656   1.265       .  A
O2648      V2652   1.900       .  S
O2648      C2655   1.265       .  A
O2649      V2652   1.911       .  S
O2649      C2654   1.267       .  A
O2650      V2652   1.907       .  S
O2650      C2653   1.267       .  A
V2651      V2652   2.084       .  T
C2653      C3169   1.496       .  S
C2654      C3277   1.501       .  S
C2655      C3196   1.483       .  S
C2656      C3184   1.484       .  S
O2658      V2665   1.916       .  S
O2658      C3884   1.269       .  A
O2659      V2665   1.894       .  S
O2659      C2669   1.262       .  A
O2660      C2670   1.263       .  A
O2661      C3886   1.264       .  A
O2662      V2666   1.899       .  S
O2662      C3885   1.265       .  A
O2664      V2666   1.905       .  S
O2664      C2667   1.266       .  A
V2665      V3882   2.084       .  T
V2666      V3881   2.085       .  T
C2667      C3148   1.494       .  S
C2668      O3874   1.269       .  A
C2668      C3160   1.501       .  S
C2669      O3878   1.265       .  A
C2669      C3121   1.477       .  S
C2670      O3877   1.265       .  A
C2670      C3133   1.478       .  S
O2672      V2679   1.917       .  S
O2672      C2682   1.269       .  A
O2673      V2679   1.898       .  S
O2673      C2683   1.264       .  A
O2674      C2684   1.263       .  A
O2675      C2684   1.264       .  A
O2676      V2680   1.896       .  S
O2676      C2683   1.264       .  A
O2678      V2680   1.901       .  S
O2678      C2681   1.264       .  A
V2679      V2680   2.085       .  T
C2681      C3100   1.494       .  S
C2682      C3112   1.493       .  S
C2683      C3085   1.481       .  S
C2684      C3073   1.477       .  S
O2685      V2693   1.920       .  S
O2685      C3911   1.269       .  A
O2686      V2693   1.920       .  S
O2686      C3912   1.269       .  A
O2687      V2693   1.891       .  S
O2687      C2697   1.262       .  A
O2688      V2693   1.897       .  S
O2688      C2698   1.264       .  A
O2689      V2694   1.899       .  S
O2689      C3914   1.264       .  A
O2690      V2694   1.900       .  S
O2690      C3913   1.265       .  A
O2691      V2694   1.905       .  S
O2691      C2696   1.266       .  A
O2692      V2694   1.911       .  S
O2692      C2695   1.267       .  A
V2693      V3910   2.085       .  T
V2694      V3909   2.086       .  T
C2695      O3901   1.270       .  A
C2695      C3064   1.500       .  S
C2696      O3902   1.269       .  A
C2696      C3049   1.495       .  S
C2697      O3906   1.264       .  A
C2697      C3124   1.472       .  S
C2698      O3905   1.265       .  A
C2698      C3136   1.480       .  S
O2699      V2707   1.909       .  S
O2699      C2709   1.267       .  A
O2700      V2707   1.910       .  S
O2700      C2710   1.267       .  A
O2701      V2707   1.885       .  S
O2701      C2711   1.260       .  A
O2702      V2707   1.886       .  S
O2702      C2712   1.262       .  A
O2703      V2708   1.905       .  S
O2703      C2712   1.265       .  A
O2704      V2708   1.906       .  S
O2704      C2711   1.267       .  A
O2705      V2708   1.916       .  S
O2705      C2710   1.268       .  A
O2706      V2708   1.916       .  S
O2706      C2709   1.268       .  A
V2707      V2708   2.085       .  T
C2709      C3037   1.498       .  S
C2710      C3028   1.497       .  S
C2711      C3076   1.481       .  S
C2712      C3088   1.478       .  S
O2714      V2721   1.912       .  S
O2714      C3940   1.267       .  A
O2715      V2721   1.895       .  S
O2715      C2725   1.263       .  A
O2716      C2726   1.264       .  A
O2717      C3942   1.264       .  A
O2718      V2722   1.893       .  S
O2718      C3941   1.263       .  A
O2720      V2722   1.913       .  S
O2720      C2723   1.269       .  A
V2721      V3938   2.084       .  T
V2722      V3937   2.083       .  T
C2723      C3157   1.504       .  S
C2724      O3930   1.266       .  A
C2724      C3388   1.493       .  S
C2725      O3934   1.264       .  A
C2725      C3013   1.480       .  S
C2726      O3933   1.264       .  A
C2726      C3004   1.477       .  S
O2728      V2735   1.912       .  S
O2728      C2738   1.267       .  A
O2729      V2735   1.889       .  S
O2729      C2739   1.262       .  A
O2730      C2740   1.266       .  A
O2731      C2740   1.263       .  A
O2732      V2736   1.894       .  S
O2732      C2739   1.263       .  A
O2734      V2736   1.908       .  S
O2734      C2737   1.267       .  A
V2735      V2736   2.085       .  T
C2737      C3109   1.494       .  S
C2738      C3340   1.493       .  S
C2739      C2989   1.474       .  S
C2740      C2977   1.489       .  S
O2741      V2749   1.917       .  S
O2741      C3967   1.269       .  A
O2742      V2749   1.921       .  S
O2742      C3968   1.269       .  A
O2743      V2749   1.897       .  S
O2743      C2753   1.264       .  A
O2744      V2749   1.893       .  S
O2744      C2754   1.262       .  A
O2745      V2750   1.893       .  S
O2745      C3970   1.264       .  A
O2746      V2750   1.896       .  S
O2746      C3969   1.264       .  A
O2747      V2750   1.914       .  S
O2747      C2752   1.268       .  A
O2748      V2750   1.915       .  S
O2748      C2751   1.267       .  A
V2749      V3966   2.084       .  T
V2750      V3965   2.083       .  T
C2751      O3957   1.269       .  A
C2751      C3316   1.500       .  S
C2752      O3958   1.269       .  A
C2752      C3061   1.502       .  S
C2753      O3962   1.264       .  A
C2753      C3001   1.478       .  S
C2754      O3961   1.264       .  A
C2754      C3016   1.477       .  S
O2755      V2763   1.911       .  S
O2755      C2765   1.266       .  A
O2756      V2763   1.911       .  S
O2756      C2766   1.268       .  A
O2757      V2763   1.900       .  S
O2757      C2767   1.266       .  A
O2758      V2763   1.891       .  S
O2758      C2768   1.263       .  A
O2759      V2764   1.894       .  S
O2759      C2768   1.263       .  A
O2760      V2764   1.897       .  S
O2760      C2767   1.263       .  A
O2761      V2764   1.914       .  S
O2761      C2766   1.267       .  A
O2762      V2764   1.916       .  S
O2762      C2765   1.268       .  A
V2763      V2764   2.082       .  T
C2765      C3265   1.491       .  S
C2766      C3040   1.501       .  S
C2767      C2980   1.489       .  S
C2768      C2992   1.474       .  S
O2770      V2777   1.906       .  S
O2770      C3996   1.266       .  A
O2771      V2777   1.894       .  S
O2771      C2781   1.264       .  A
O2772      C2782   1.263       .  A
O2773      C3998   1.264       .  A
O2774      V2778   1.898       .  S
O2774      C3997   1.264       .  A
O2776      V2778   1.925       .  S
O2776      C2779   1.270       .  A
V2777      V3994   2.085       .  T
V2778      V3993   2.085       .  T
C2779      C3493   1.503       .  S
C2780      O3986   1.266       .  A
C2780      C3145   1.496       .  S
C2781      O3990   1.264       .  A
C2781      C2968   1.476       .  S
C2782      O3989   1.264       .  A
C2782      C2956   1.477       .  S
O2784      V2791   1.920       .  S
O2784      C2794   1.269       .  A
O2785      V2791   1.894       .  S
O2785      C2795   1.263       .  A
O2786      C2796   1.262       .  A
O2787      C2796   1.264       .  A
O2788      V2792   1.898       .  S
O2788      C2795   1.264       .  A
O2790      V2792   1.903       .  S
O2790      C2793   1.266       .  A
V2791      V2792   2.085       .  T
C2793      C3460   1.494       .  S
C2794      C3097   1.495       .  S
C2795      C2941   1.475       .  S
C2796      C2929   1.475       .  S
O2797      V2805   1.917       .  S
O2797      C4023   1.268       .  A
O2798      V2805   1.922       .  S
O2798      C4024   1.269       .  A
O2799      V2805   1.896       .  S
O2799      C2809   1.263       .  A
O2800      V2805   1.902       .  S
O2800      C2810   1.266       .  A
O2801      V2806   1.895       .  S
O2801      C4026   1.262       .  A
O2802      V2806   1.895       .  S
O2802      C4025   1.262       .  A
O2803      V2806   1.905       .  S
O2803      C2808   1.266       .  A
O2804      V2806   1.911       .  S
O2804      C2807   1.267       .  A
V2805      V4022   2.085       .  T
V2806      V4021   2.085       .  T
C2807      O4013   1.268       .  A
C2807      C3052   1.496       .  S
C2808      O4014   1.269       .  A
C2808      C3424   1.502       .  S
C2809      O4018   1.263       .  A
C2809      C2953   1.471       .  S
C2810      O4017   1.262       .  A
C2810      C2965   1.483       .  S
O2811      V2819   1.900       .  S
O2811      C2821   1.264       .  A
O2812      V2819   1.900       .  S
O2812      C2822   1.265       .  A
O2813      V2819   1.897       .  S
O2813      C2823   1.264       .  A
O2814      V2819   1.901       .  S
O2814      C2824   1.266       .  A
O2815      V2820   1.896       .  S
O2815      C2824   1.263       .  A
O2816      V2820   1.896       .  S
O2816      C2823   1.263       .  A
O2817      V2820   1.920       .  S
O2817      C2822   1.269       .  A
O2818      V2820   1.923       .  S
O2818      C2821   1.270       .  A
V2819      V2820   2.086       .  T
C2821      C3025   1.495       .  S
C2822      C3412   1.494       .  S
C2823      C2932   1.474       .  S
C2824      C2944   1.480       .  S
O2825      V4049   1.906       .  S
O2826      V2833   1.913       .  S
O2827      V2833   1.902       .  S
O2827      C2837   1.265       .  A
O2828      V4049   1.903   1_545  S
O2828      C2838   1.265       .  A
O2829      V4050   1.899   1_545  S
O2830      V2834   1.900       .  S
O2831      V4050   1.915       .  S
O2831      C4052   1.267       .  A
O2832      V2834   1.919       .  S
O2832      C2835   1.269       .  A
V2833      O4041   1.909       .  S
V2833      O4044   1.899       .  S
V2834      O4045   1.902       .  S
V2834      O4047   1.920       .  S
C2835      C3637   1.502       .  S
C2836      O4047   1.267       .  A
C2836      C3256   1.504       .  S
C2837      C2905   1.482       .  S
C2838      C2917   1.482       .  S
O2839      V2847   1.905       .  S
O2840      V2847   1.910       .  S
O2841      V2847   1.901       .  S
O2841      C2851   1.265       .  A
O2842      V2847   1.900       .  S
O2842      C2852   1.264       .  A
O2843      V2848   1.895       .  S
O2844      V2848   1.895       .  S
O2845      V2848   1.926       .  S
O2845      C2850   1.271       .  A
O2846      V2848   1.919       .  S
O2846      C2849   1.269       .  A
C2849      C3592   1.495       .  S
C2850      C3220   1.509       .  S
C2851      C2920   1.480       .  S
C2852      C2908   1.478       .  S
O2853      V4077   1.905       .  S
O2853      C4079   1.265       .  A
O2854      V2861   1.903       .  S
O2854      C2864   1.266       .  A
O2855      V2861   1.899       .  S
O2855      C2865   1.264       .  A
O2856      V4077   1.901       .  S
O2856      C2866   1.264       .  A
O2857      V4078   1.894       .  S
O2857      C2866   1.264       .  A
O2858      V2862   1.905       .  S
O2858      C2865   1.265       .  A
O2859      V4078   1.915       .  S
O2859      C4080   1.268       .  A
O2860      V2862   1.913       .  S
O2860      C2863   1.267       .  A
V2861      O4069   1.907       .  S
V2861      O4072   1.901       .  S
V2861      V2862   2.085       .  T
V2862      O4073   1.901       .  S
V2862      O4075   1.915       .  S
C2863      O4069   1.265       .  A
C2863      C3205   1.493       .  S
C2864      O4075   1.267       .  A
C2864      C3565   1.495       .  S
C2865      C2881   1.479       .  S
C2866      C2893   1.478       .  S
O2867      V2875   1.904       .  S
O2867      C2877   1.266       .  A
O2868      V2875   1.904       .  S
O2868      C2878   1.266       .  A
O2869      V2875   1.902       .  S
O2869      C2879   1.265       .  A
O2870      V2875   1.903       .  S
O2870      C2880   1.266       .  A
O2871      V2876   1.904       .  S
O2871      C2880   1.265       .  A
O2872      V2876   1.898       .  S
O2872      C2879   1.265       .  A
O2873      V2876   1.915       .  S
O2873      C2878   1.268       .  A
O2874      V2876   1.919       .  S
O2874      C2877   1.269       .  A
V2875      V2876   2.084       .  T
C2877      C3172   1.494       .  S
C2878      C3520   1.496       .  S
C2879      C2896   1.482       .  S
C2880      C2884   1.483       .  S
C2881      C2882   1.402       .  A
C2881      C2886   1.415       .  A
C2882      C2883   1.400       .  A
C2882      H2891   1.084       .  S
C2883      C2884   1.415       .  A
C2883      S2887   1.803       .  S
C2884      C2885   1.405       .  A
C2885      C2886   1.403       .  A
C2885      H2892   1.084       .  S
C2886      S2888   1.804       .  S
S2887      H2890   1.406       .  S
S2888      H2889   1.406       .  S
C2893      C2894   1.400       .  A
C2893      C2898   1.416       .  A
C2894      C2895   1.394       .  A
C2894      H2903   1.086       .  S
C2895      C2896   1.413       .  A
C2895      S2899   1.793       .  S
C2896      C2897   1.405       .  A
C2897      C2898   1.402       .  A
C2897      H2904   1.085       .  S
C2898      S2900   1.802       .  S
S2899      H2902   1.407       .  S
S2900      H2901   1.407       .  S
C2905      C2906   1.404       .  A
C2906      C2907   1.402       .  A
C2906      H2915   1.084       .  S
C2907      C2908   1.415       .  A
C2907      S2911   1.803       .  S
C2909      C2910   1.396       .  A
C2909      H2916   1.084       .  S
C2910      S2912   1.794       .  S
S2911      H2914   1.408       .  S
S2912      H2913   1.403       .  S
C2917      C2922   1.415       .  A
C2918      C2919   1.400       .  A
C2918      H2927   1.084       .  S
C2919      S2923   1.804       .  S
C2920      C2921   1.403       .  A
C2921      C2922   1.400       .  A
C2921      H2928   1.084       .  S
C2922      S2924   1.801       .  S
S2923      H2926   1.407       .  S
S2924      H2925   1.406       .  S
C2929      C2930   1.404       .  A
C2929      C2934   1.413       .  A
C2930      C2931   1.399       .  A
C2930      H2939   1.085       .  S
C2931      C2932   1.415       .  A
C2931      S2935   1.804       .  S
C2932      C2933   1.402       .  A
C2933      C2934   1.397       .  A
C2933      H2940   1.084       .  S
C2934      S2936   1.803       .  S
S2935      H2938   1.407       .  S
S2936      H2937   1.407       .  S
C2941      C2942   1.402       .  A
C2941      C2946   1.412       .  A
C2942      C2943   1.401       .  A
C2942      H2951   1.083       .  S
C2943      C2944   1.415       .  A
C2943      S2947   1.806       .  S
C2944      C2945   1.404       .  A
C2945      C2946   1.398       .  A
C2945      H2952   1.084       .  S
C2946      S2948   1.803       .  S
S2947      H2950   1.407       .  S
S2948      H2949   1.407       .  S
C2953      C2954   1.398       .  A
C2953      C4174   1.412       .  A
C2954      C2955   1.395       .  A
C2954      H2963   1.084       .  S
C2955      C4172   1.414       .  A
C2955      S2959   1.789       .  S
C2956      C4171   1.412       .  A
C2956      C2957   1.404       .  A
C2957      C2958   1.400       .  A
C2957      H2964   1.083       .  S
C2958      C4169   1.413       .  A
C2958      S2960   1.803       .  S
S2959      H2962   1.394       .  S
S2960      H2961   1.407       .  S
C2965      C2966   1.406       .  A
C2965      C4186   1.415       .  A
C2966      C2967   1.400       .  A
C2966      H2975   1.084       .  S
C2967      C4184   1.413       .  A
C2967      S2971   1.804       .  S
C2968      C4183   1.414       .  A
C2968      C2969   1.400       .  A
C2969      C2970   1.395       .  A
C2969      H2976   1.084       .  S
C2970      C4181   1.415       .  A
C2970      S2972   1.796       .  S
S2971      H2974   1.406       .  S
S2972      H2973   1.407   1_565  S
C2977      C2978   1.405       .  A
C2977      C2982   1.418       .  A
C2978      C2979   1.399       .  A
C2978      H2987   1.084       .  S
C2979      C2980   1.417       .  A
C2979      S2983   1.801       .  S
C2980      C2981   1.406       .  A
C2981      C2982   1.399       .  A
C2981      H2988   1.084       .  S
C2982      S2984   1.802       .  S
S2983      H2986   1.405       .  S
S2984      H2985   1.408       .  S
C2989      C2990   1.405       .  A
C2989      C2994   1.413       .  A
C2990      C2991   1.401       .  A
C2990      H2999   1.080       .  S
C2991      C2992   1.413       .  A
C2991      S2995   1.809       .  S
C2992      C2993   1.403       .  A
C2993      C2994   1.394       .  A
C2993      H3000   1.082       .  S
C2994      S2996   1.804       .  S
S2995      H2998   1.407       .  S
S2996      H2997   1.407       .  S
C3001      C4218   1.403       .  A
C3001      C3006   1.414       .  A
C3002      C4217   1.404       .  A
C3002      C3003   1.397       .  A
C3002      H3011   1.084       .  S
C3003      C3004   1.414       .  A
C3003      S3007   1.804   1_565  S
C3004      C4221   1.404       .  A
C3005      C4220   1.404       .  A
C3005      C3006   1.400       .  A
C3005      H3012   1.083       .  S
C3006      S3008   1.803       .  S
S3007      H3010   1.408   1_545  S
S3008      H3009   1.408       .  S
C3013      C4230   1.405       .  A
C3013      C3018   1.416       .  A
C3014      C4229   1.403       .  A
C3014      C3015   1.396       .  A
C3014      H3023   1.084       .  S
C3015      C3016   1.416       .  A
C3015      S3019   1.803       .  S
C3016      C4233   1.404       .  A
C3017      C4232   1.404       .  A
C3017      C3018   1.401       .  A
C3017      H3024   1.083   1_565  S
C3018      S3020   1.809   1_565  S
S3019      H3022   1.407       .  S
S3020      H3021   1.407       .  S
C3025      C3026   1.405       .  A
C3025      C3030   1.418       .  A
C3026      C3027   1.409   1_556  A
C3026      H3035   1.083       .  S
C3027      C3028   1.417       .  A
C3027      S3031   1.796       .  S
C3028      C3029   1.404       .  A
C3029      C3030   1.404   1_554  A
C3029      H3036   1.083       .  S
C3030      S3032   1.803       .  S
S3031      H3034   1.407       .  S
S3032      H3033   1.406       .  S
C3037      C3038   1.406       .  A
C3037      C3042   1.416       .  A
C3038      C3039   1.409       .  A
C3038      H3047   1.084       .  S
C3039      C3040   1.420       .  A
C3039      S3043   1.799       .  S
C3040      C3041   1.406       .  A
C3041      C3042   1.404       .  A
C3041      H3048   1.084       .  S
C3042      S3044   1.799       .  S
S3043      H3046   1.407       .  S
S3044      H3045   1.407       .  S
C3049      C4266   1.408       .  A
C3049      C3054   1.416       .  A
C3050      C4265   1.408       .  A
C3050      C3051   1.410   1_554  A
C3050      H3059   1.084       .  S
C3051      C4268   1.417       .  A
C3051      S3055   1.803       .  S
C3052      C4267   1.418       .  A
C3052      C3053   1.405       .  A
C3053      C3054   1.405   1_556  A
C3053      H3060   1.083       .  S
C3054      S3056   1.803       .  S
S3055      H3058   1.406       .  S
S3056      H3057   1.407       .  S
C3061      C4278   1.408       .  A
C3061      C3066   1.419       .  A
C3062      C4277   1.409       .  A
C3062      C3063   1.412       .  A
C3062      H3071   1.084       .  S
C3063      C4280   1.419       .  A
C3063      S3067   1.802       .  S
C3064      C4279   1.417       .  A
C3064      C3065   1.406       .  A
C3065      C3066   1.408       .  A
C3065      H3072   1.085       .  S
C3066      S3068   1.803       .  S
S3067      H3070   1.407       .  S
S3068      H3069   1.407       .  S
C3073      C3074   1.401       .  A
C3073      C3078   1.414       .  A
C3074      C3075   1.399       .  A
C3074      H3083   1.081       .  S
C3075      C3076   1.419       .  A
C3075      S3079   1.810       .  S
C3076      C3077   1.405       .  A
C3077      C3078   1.399       .  A
C3077      H3084   1.082       .  S
C3078      S3080   1.804       .  S
S3079      H3082   1.406       .  S
S3080      H3081   1.407       .  S
C3085      C3086   1.407       .  A
C3085      C3090   1.415       .  A
C3086      C3087   1.401       .  A
C3086      H3095   1.085       .  S
C3087      C3088   1.413       .  A
C3087      S3091   1.804       .  S
C3088      C3089   1.402       .  A
C3089      C3090   1.397       .  A
C3089      H3096   1.084       .  S
C3090      S3092   1.808       .  S
S3091      H3094   1.407       .  S
S3092      H3093   1.406       .  S
C3097      C3098   1.405       .  A
C3098      C3099   1.401   1_556  A
C3098      H3107   1.084       .  S
C3099      C3100   1.417       .  A
C3099      S3103   1.798       .  S
C3101      C3102   1.405   1_554  A
C3101      H3108   1.084       .  S
C3102      S3104   1.792       .  S
S3103      H3106   1.405       .  S
S3104      H3105   1.406       .  S
C3109      C3114   1.417       .  A
C3110      C3111   1.403       .  A
C3110      H3119   1.083       .  S
C3111      S3115   1.804       .  S
C3112      C3113   1.405       .  A
C3113      C3114   1.410       .  A
C3113      H3120   1.082       .  S
C3114      S3116   1.808       .  S
S3115      H3118   1.407       .  S
S3116      H3117   1.407       .  S
C3121      C4338   1.405       .  A
C3121      C3126   1.416       .  A
C3122      C4337   1.405       .  A
C3122      C3123   1.399       .  A
C3122      H3131   1.084       .  S
C3123      C4340   1.412       .  A
C3123      S3127   1.803       .  S
C3124      C4339   1.412       .  A
C3124      C3125   1.401       .  A
C3125      C3126   1.395       .  A
C3125      H3132   1.085       .  S
C3126      S3128   1.799       .  S
S3127      H3130   1.408       .  S
S3128      H3129   1.402       .  S
C3133      C3134   1.402       .  A
C3133      C4354   1.414       .  A
C3134      C3135   1.395       .  A
C3134      H3143   1.084       .  S
C3135      C3136   1.414       .  A
C3135      S3139   1.799       .  S
C3136      C4353   1.405       .  A
C3137      C4352   1.404       .  A
C3137      C3138   1.400       .  A
C3137      H3144   1.084       .  S
C3138      C4349   1.415       .  A
C3138      S3140   1.802       .  S
S3139      H3142   1.406       .  S
S3140      H3141   1.407       .  S
C3145      C4362   1.408       .  A
C3146      C4361   1.407       .  A
C3146      C3147   1.410   1_556  A
C3146      H3155   1.083       .  S
C3147      S3151   1.803       .  S
C3148      C4365   1.405       .  A
C3149      C4364   1.405       .  A
C3149      C3150   1.404   1_554  A
C3149      H3156   1.084       .  S
C3150      S3152   1.803       .  S
S3151      H3154   1.406       .  S
S3152      H3153   1.407       .  S
C3157      C4378   1.421       .  A
C3158      C3159   1.406       .  A
C3158      H3167   1.084       .  S
C3159      C4376   1.419       .  A
C3159      S3163   1.796       .  S
C3160      C4375   1.418       .  A
C3161      C3162   1.408       .  A
C3161      H3168   1.082       .  S
C3162      C4373   1.417       .  A
C3162      S3164   1.809   1_565  S
S3163      H3166   1.400       .  S
S3164      H3165   1.406       .  S
C3169      C3170   1.409       .  A
C3169      C3174   1.415       .  A
C3170      C3171   1.412       .  A
C3170      H3179   1.083       .  S
C3171      C3172   1.418       .  A
C3171      S3175   1.803       .  S
C3172      C3173   1.405       .  A
C3173      C3174   1.402       .  A
C3173      H3180   1.084       .  S
C3174      S3176   1.803       .  S
S3175      H3178   1.406       .  S
S3176      H3177   1.407       .  S
C3181      C3182   1.404       .  A
C3181      C3186   1.416       .  A
C3182      C3183   1.397       .  A
C3182      H3191   1.084       .  S
C3183      C3184   1.413       .  A
C3183      S3187   1.797       .  S
C3184      C3185   1.404       .  A
C3185      C3186   1.406       .  A
C3185      H3192   1.082       .  S
C3186      S3188   1.805       .  S
S3187      H3190   1.394       .  S
S3188      H3189   1.407       .  S
C3193      C3194   1.405       .  A
C3193      C3198   1.413       .  A
C3194      C3195   1.405       .  A
C3194      H3203   1.083       .  S
C3195      C3196   1.414       .  A
C3195      S3199   1.805       .  S
C3196      C3197   1.404       .  A
C3197      C3198   1.399       .  A
C3197      H3204   1.084       .  S
C3198      S3200   1.803       .  S
S3199      H3202   1.407       .  S
S3200      H3201   1.408       .  S
C3205      C3206   1.405       .  A
C3205      C4426   1.417       .  A
C3206      C3207   1.404       .  A
C3206      H3215   1.084       .  S
C3207      C3208   1.415       .  A
C3207      S3211   1.804       .  S
C3208      C4425   1.407       .  A
C3209      C4424   1.408   1_545  A
C3209      C3210   1.411       .  A
C3209      H3216   1.083       .  S
C3210      C4421   1.417       .  A
C3210      S3212   1.803       .  S
S3211      H3214   1.407       .  S
S3212      H3213   1.407       .  S
C3217      C3222   1.420       .  A
C3218      C3219   1.408       .  A
C3218      H3227   1.084       .  S
C3219      S3223   1.793       .  S
C3220      C3221   1.407       .  A
C3221      C3222   1.412       .  A
C3221      H3228   1.082       .  S
C3222      S3224   1.806       .  S
S3223      H3226   1.406       .  S
S3224      H3225   1.406       .  S
C3229      C3230   1.403       .  A
C3230      C3231   1.398       .  A
C3230      H3239   1.084       .  S
C3231      C3232   1.414       .  A
C3231      S3235   1.798       .  S
C3233      C3234   1.404       .  A
C3233      H3240   1.084       .  S
C3234      S3236   1.803       .  S
S3235      H3238   1.406       .  S
S3236      H3237   1.407       .  S
C3241      C3242   1.403       .  A
C3242      C3243   1.398       .  A
C3242      H3251   1.083       .  S
C3243      C3244   1.413       .  A
C3243      S3247   1.803       .  S
C3245      C3246   1.399       .  A
C3245      H3252   1.084       .  S
C3246      S3248   1.804       .  S
S3247      H3250   1.407       .  S
S3248      H3249   1.407       .  S
C3253      C4470   1.402       .  A
C3254      C4469   1.402   1_565  A
C3254      C3255   1.403       .  A
C3254      H3263   1.084       .  S
C3255      C4472   1.421       .  A
C3255      S3259   1.796       .  S
C3256      C4471   1.425       .  A
C3257      C3258   1.405       .  A
C3257      H3264   1.083       .  S
C3258      S3260   1.803       .  S
S3259      H3262   1.391       .  S
S3260      H4477   1.407       .  S
H3261      S4476   1.407       .  S
C3265      C3266   1.405       .  A
C3265      C3270   1.412       .  A
C3266      C3267   1.409       .  A
C3266      H3275   1.084       .  S
C3267      C3268   1.420       .  A
C3267      S3271   1.801       .  S
C3268      C3269   1.411       .  A
C3269      C3270   1.407       .  A
C3269      H3276   1.083       .  S
C3270      S3272   1.803       .  S
S3271      H3274   1.407       .  S
S3272      H3273   1.406       .  S
C3277      C3278   1.407       .  A
C3277      C3282   1.419       .  A
C3278      C3279   1.407       .  A
C3278      H3287   1.083       .  S
C3279      C3280   1.417       .  A
C3279      S3283   1.803       .  S
C3280      C3281   1.408       .  A
C3281      C3282   1.411       .  A
C3281      H3288   1.083       .  S
C3282      S3284   1.803       .  S
S3283      H3286   1.407       .  S
S3284      H3285   1.407       .  S
C3289      C3290   1.405       .  A
C3289      C3294   1.415       .  A
C3290      C3291   1.400       .  A
C3290      H3299   1.084       .  S
C3291      C3292   1.414       .  A
C3291      S3295   1.802       .  S
C3292      C3293   1.405       .  A
C3293      C3294   1.397       .  A
C3293      H3300   1.085       .  S
C3294      S3296   1.804       .  S
S3295      H3298   1.408       .  S
S3296      H3297   1.408       .  S
C3301      C3302   1.405       .  A
C3301      C3306   1.420       .  A
C3302      C3303   1.400       .  A
C3302      H3311   1.084       .  S
C3303      C3304   1.417       .  A
C3303      S3307   1.802       .  S
C3304      C3305   1.406       .  A
C3305      C3306   1.406       .  A
C3305      H3312   1.082       .  S
C3306      S3308   1.811       .  S
S3307      H3310   1.408       .  S
S3308      H3309   1.406       .  S
C3313      C3314   1.409   1_565  A
C3313      C4534   1.418       .  A
C3314      C3315   1.412       .  A
C3314      H3323   1.084       .  S
C3315      C3316   1.417   1_545  A
C3315      S3319   1.802       .  S
C3316      C4533   1.406       .  A
C3317      C4532   1.407       .  A
C3317      C3318   1.407       .  A
C3317      H3324   1.081       .  S
C3318      C4529   1.415       .  A
C3318      S3320   1.801       .  S
S3319      H3322   1.407   1_545  S
S3320      H3321   1.405       .  S
C3325      C4542   1.408   1_545  A
C3325      C3330   1.418       .  A
C3326      C4541   1.406       .  A
C3326      C3327   1.403       .  A
C3326      H3335   1.083       .  S
C3327      C3328   1.419       .  A
C3327      S3331   1.800       .  S
C3328      C4545   1.409       .  A
C3329      C4544   1.410       .  A
C3329      C3330   1.412       .  A
C3329      H3336   1.084       .  S
C3330      S3332   1.801       .  S
S3331      H3334   1.403       .  S
S3332      H3333   1.407       .  S
C3337      C3338   1.405       .  A
C3338      C3339   1.406       .  A
C3338      H3347   1.085       .  S
C3339      C3340   1.418       .  A
C3339      S3343   1.802       .  S
C3341      C3342   1.406   1_655  A
C3341      H3348   1.084       .  S
C3342      S3344   1.803   1_455  S
S3343      H3346   1.403       .  S
S3344      H3345   1.407   1_655  S
C3349      C3350   1.407       .  A
C3350      C3351   1.410       .  A
C3350      H3359   1.084       .  S
C3351      C3352   1.420       .  A
C3351      S3355   1.800       .  S
C3353      C3354   1.402       .  A
C3353      H3360   1.084       .  S
C3354      S3356   1.803   1_455  S
S3355      H3358   1.407       .  S
S3356      H3357   1.408   1_655  S
C3361      C3362   1.403       .  A
C3362      C3363   1.397       .  A
C3362      H3371   1.083   1_455  S
C3363      C3364   1.414       .  A
C3363      S3367   1.804   1_455  S
C3365      C3366   1.398       .  A
C3365      H3372   1.084       .  S
C3366      S3368   1.803       .  S
S3367      H3370   1.406       .  S
S3368      H3369   1.408       .  S
C3373      C3374   1.407       .  A
C3374      C3375   1.403       .  A
C3374      H3383   1.084       .  S
C3375      C3376   1.416       .  A
C3375      S3379   1.802       .  S
C3377      C3378   1.398       .  A
C3377      H3384   1.084       .  S
C3378      S3380   1.803       .  S
S3379      H3382   1.407       .  S
S3380      H3381   1.407       .  S
C3385      C3390   1.416       .  A
C3386      C3387   1.411       .  A
C3386      H3395   1.084       .  S
C3387      S3391   1.803       .  S
C3388      C3389   1.405       .  A
C3389      C3390   1.404       .  A
C3389      H3396   1.084       .  S
C3390      S3392   1.802       .  S
S3391      H3394   1.407       .  S
S3392      H3393   1.405       .  S
C3397      C3398   1.407       .  A
C3398      C3399   1.408       .  A
C3398      H3407   1.083       .  S
C3399      C3400   1.418       .  A
C3399      S3403   1.803       .  S
C3401      C3402   1.401       .  A
C3401      H3408   1.083       .  S
C3402      S3404   1.802       .  S
S3403      H3406   1.407       .  S
S3404      H3405   1.406       .  S
C3409      C3410   1.408       .  A
C3409      C3414   1.415       .  A
C3410      C3411   1.406       .  A
C3410      H3419   1.084       .  S
C3411      C3412   1.414       .  A
C3411      S3415   1.798       .  S
C3412      C3413   1.406       .  A
C3413      C3414   1.407       .  A
C3413      H3420   1.082       .  S
C3414      S3416   1.808       .  S
S3415      H3418   1.405       .  S
S3416      H3417   1.407       .  S
C3421      C3422   1.405       .  A
C3421      C4642   1.417       .  A
C3422      C3423   1.399       .  A
C3422      H3431   1.083       .  S
C3423      C3424   1.418       .  A
C3423      S3427   1.799   1_565  S
C3424      C4641   1.411       .  A
C3425      C4640   1.410       .  A
C3425      C3426   1.413       .  A
C3425      H3432   1.083       .  S
C3426      C4637   1.417       .  A
C3426      S3428   1.801       .  S
S3427      H3430   1.402   1_545  S
S3428      H3429   1.407       .  S
C3433      C3434   1.404       .  A
C3433      C3438   1.416       .  A
C3434      C3435   1.399       .  A
C3434      H3443   1.083       .  S
C3435      C3436   1.415       .  A
C3435      S3439   1.803       .  S
C3436      C3437   1.405       .  A
C3437      C3438   1.399       .  A
C3437      H3444   1.083       .  S
C3438      S3440   1.804       .  S
S3439      H3442   1.408       .  S
S3440      H3441   1.407       .  S
C3445      C3446   1.402       .  A
C3445      C3450   1.414       .  A
C3446      C3447   1.392       .  A
C3446      H3455   1.084       .  S
C3447      C3448   1.414       .  A
C3447      S3451   1.803       .  S
C3448      C3449   1.405       .  A
C3449      C3450   1.405       .  A
C3449      H3456   1.082       .  S
C3450      S3452   1.808       .  S
S3451      H3454   1.406       .  S
S3452      H3453   1.407       .  S
C3457      C3462   1.416       .  A
C3458      C3459   1.410       .  A
C3458      H3467   1.085       .  S
C3459      S3463   1.802       .  S
C3460      C3461   1.405       .  A
C3461      C3462   1.402       .  A
C3461      H3468   1.084       .  S
C3462      S3464   1.804       .  S
S3463      H3466   1.406       .  S
S3464      H3465   1.407       .  S
C3469      C4686   1.405       .  A
C3469      C3474   1.420       .  A
C3470      C4685   1.405       .  A
C3470      C3471   1.398       .  A
C3470      H3479   1.085   1_565  S
C3471      C3472   1.416       .  A
C3471      S3475   1.802   1_565  S
C3472      C4689   1.404       .  A
C3473      C4688   1.404       .  A
C3473      C3474   1.398       .  A
C3473      H3480   1.085       .  S
C3474      S3476   1.804       .  S
S3475      H3478   1.408   1_545  S
S3476      H3477   1.399       .  S
C3481      C4698   1.402       .  A
C3481      C3486   1.413       .  A
C3482      C4697   1.402       .  A
C3482      C3483   1.397       .  A
C3482      H3491   1.083       .  S
C3483      C3484   1.413       .  A
C3483      S3487   1.802       .  S
C3484      C4701   1.403       .  A
C3485      C4700   1.404       .  A
C3485      C3486   1.396       .  A
C3485      H3492   1.083       .  S
C3486      S3488   1.804       .  S
S3487      H3490   1.406       .  S
S3488      H3489   1.407       .  S
C3493      C4714   1.419       .  A
C3494      C3495   1.413       .  A
C3494      H3503   1.084       .  S
C3495      S3499   1.800       .  S
C3496      C4713   1.405       .  A
C3497      C4712   1.406       .  A
C3497      C3498   1.406       .  A
C3497      H3504   1.084       .  S
C3498      C4709   1.419       .  A
C3498      S3500   1.802       .  S
S3499      H3502   1.405       .  S
S3500      H3501   1.406       .  S
C3505      C3506   1.404       .  A
C3505      C3510   1.418       .  A
C3506      C3507   1.406       .  A
C3506      H3515   1.084       .  S
C3507      C3508   1.417       .  A
C3507      S3511   1.802       .  S
C3508      C3509   1.403       .  A
C3509      C3510   1.404       .  A
C3509      H3516   1.084       .  S
C3510      S3512   1.802       .  S
S3511      H3514   1.407       .  S
S3512      H3513   1.406       .  S
C3517      C3518   1.407       .  A
C3517      C3522   1.418       .  A
C3518      C3519   1.408       .  A
C3518      H3527   1.084       .  S
C3519      C3520   1.418       .  A
C3519      S3523   1.802       .  S
C3520      C3521   1.405       .  A
C3521      C3522   1.402       .  A
C3521      H3528   1.084       .  S
C3522      S3524   1.803       .  S
S3523      H3526   1.407       .  S
S3524      H3525   1.407       .  S
C3529      C3530   1.403       .  A
C3529      C3534   1.417       .  A
C3530      C3531   1.399       .  A
C3530      H3539   1.085       .  S
C3531      C3532   1.417       .  A
C3531      S3535   1.804       .  S
C3532      C3533   1.401       .  A
C3533      C3534   1.396       .  A
C3533      H3540   1.085       .  S
C3534      S3536   1.802       .  S
S3535      H3538   1.408       .  S
S3536      H3537   1.404       .  S
C3541      C3542   1.407       .  A
C3541      C3546   1.414       .  A
C3542      C3543   1.403       .  A
C3542      H3551   1.083       .  S
C3543      C3544   1.416       .  A
C3543      S3547   1.810       .  S
C3544      C3545   1.407       .  A
C3545      C3546   1.399       .  A
C3545      H3552   1.084       .  S
C3546      S3548   1.802       .  S
S3547      H3550   1.406       .  S
S3548      H3549   1.408       .  S
C3553      C3554   1.407       .  A
C3553      C4774   1.411       .  A
C3554      C3555   1.404   1_565  A
C3554      H3563   1.084   1_565  S
C3555      C3556   1.414   1_545  A
C3555      S3559   1.803       .  S
C3556      C3688   1.487       .  S
C3556      C4773   1.406       .  A
C3557      C4772   1.407       .  A
C3557      C3558   1.404       .  A
C3557      H3564   1.081       .  S
C3558      C4769   1.412       .  A
C3558      S3560   1.797       .  S
S3559      H3562   1.407       .  S
S3560      H3561   1.407       .  S
C3565      C4782   1.408       .  A
C3565      C3570   1.416       .  A
C3566      C4781   1.407       .  A
C3566      C3567   1.408       .  A
C3566      H3575   1.083       .  S
C3567      C4784   1.418       .  A
C3567      S3571   1.803       .  S
C3568      C4783   1.419       .  A
C3568      C3569   1.404       .  A
C3569      C3570   1.400       .  A
C3569      H3576   1.083       .  S
C3570      S3572   1.804       .  S
S3571      H3574   1.408       .  S
S3572      H3573   1.408       .  S
C3577      C3578   1.406       .  A
C3578      C3579   1.405       .  A
C3578      H3587   1.083       .  S
C3579      C3580   1.415       .  A
C3579      S3583   1.801       .  S
C3581      C3582   1.409       .  A
C3581      H3588   1.084   1_455  S
C3582      S3584   1.803   1_455  S
S3583      H3586   1.405       .  S
S3584      H3585   1.408       .  S
C3589      C3590   1.408       .  A
C3590      C3591   1.409       .  A
C3590      H3599   1.084       .  S
C3591      C3592   1.417       .  A
C3591      S3595   1.804       .  S
C3593      C3594   1.404       .  A
C3593      H3600   1.084       .  S
C3594      S3596   1.803       .  S
S3595      H3598   1.407       .  S
S3596      H3597   1.408       .  S
C3601      C3606   1.418       .  A
C3602      C3603   1.399       .  A
C3602      H3611   1.084       .  S
C3603      C3604   1.414       .  A
C3603      S3607   1.802   1_455  S
C3605      C3606   1.395       .  A
C3605      H3612   1.084       .  S
C3606      S3608   1.803       .  S
S3607      H3610   1.408   1_655  S
S3608      H3609   1.408       .  S
C3613      C3614   1.407       .  A
C3614      C3615   1.401       .  A
C3614      H3623   1.084       .  S
C3615      S3619   1.803       .  S
C3616      C3617   1.405       .  A
C3617      C3618   1.402       .  A
C3617      H3624   1.083   1_455  S
C3618      S3620   1.802   1_455  S
S3619      H3622   1.408       .  S
S3620      H3621   1.408   1_655  S
C3625      C4846   1.415       .  A
C3626      C3627   1.408   1_545  A
C3626      H3635   1.083       .  S
C3627      C4844   1.422       .  A
C3627      S3631   1.801   1_565  S
C3628      C4843   1.422       .  A
C3629      C3630   1.405       .  A
C3629      H3636   1.084   1_455  S
C3630      C4841   1.415       .  A
C3630      S3632   1.802   1_455  S
S3631      H3634   1.407       .  S
S3632      H3633   1.405   1_655  S
C3637      C3638   1.409       .  A
C3638      C3639   1.411       .  A
C3638      H3647   1.084       .  S
C3639      S3643   1.802       .  S
C3640      C3641   1.405   1_565  A
C3641      C3642   1.403       .  A
C3641      H3648   1.083       .  S
C3642      S3644   1.803       .  S
S3643      H3646   1.407       .  S
S3644      H3645   1.407       .  S
O3650      V3657   1.919       .  S
O3651      V3657   1.898       .  S
O3651      C3661   1.264       .  A
O3652      C3662   1.262       .  A
O3654      V3658   1.904       .  S
O3656      V3658   1.905       .  S
O3656      C3659   1.265       .  A
C3659      C4841   1.489       .  S
C3660      C4856   1.500       .  S
C3661      C4829   1.484       .  S
C3662      C4817   1.480       .  S
O3663      V3671   1.912       .  S
O3664      V3671   1.908       .  S
O3665      V3671   1.904       .  S
O3665      C3675   1.266       .  A
O3666      V3671   1.903       .  S
O3666      C3676   1.265       .  A
O3667      V3672   1.885       .  S
O3668      V3672   1.898       .  S
O3669      V3672   1.916       .  S
O3669      C3674   1.268       .  A
O3670      V3672   1.919       .  S
O3670      C3673   1.269       .  A
C3673      C4796   1.498       .  S
C3674      C4805   1.494       .  S
C3675      C4832   1.489       .  S
C3676      C4820   1.480       .  S
O3678      V3685   1.906   1_565  S
O3678      C3688   1.266       .  A
O3679      V3685   1.891   1_565  S
O3679      C3689   1.262       .  A
O3680      C3690   1.264       .  A
O3681      C3690   1.266       .  A
O3682      V3686   1.902   1_565  S
O3682      C3689   1.265       .  A
O3684      V3686   1.908       .  S
O3684      C3687   1.266       .  A
V3685      V3686   2.085       .  T
C3687      C4784   1.489       .  S
C3689      C4745   1.478       .  S
C3690      C4760   1.492       .  S
O3691      V3699   1.915       .  S
O3691      C3701   1.269       .  A
O3692      V3699   1.914       .  S
O3692      C3702   1.268       .  A
O3693      V3699   1.899       .  S
O3693      C3703   1.265       .  A
O3694      V3699   1.895       .  S
O3694      C3704   1.263       .  A
O3695      V3700   1.895       .  S
O3695      C3704   1.265       .  A
O3696      V3700   1.901       .  S
O3696      C3703   1.265       .  A
O3697      V3700   1.905       .  S
O3697      C3702   1.266       .  A
O3698      V3700   1.906       .  S
O3698      C3701   1.265       .  A
V3699      V3700   2.084       .  T
C3701      C4721   1.495       .  S
C3702      C4733   1.493       .  S
C3703      C4757   1.491       .  S
C3704      C4748   1.477       .  S
O3706      V3713   1.908       .  S
O3707      V3713   1.894       .  S
O3707      C3717   1.263       .  A
O3708      C3718   1.263       .  A
O3710      V3714   1.893       .  S
O3712      V3714   1.915       .  S
O3712      C3715   1.269       .  A
C3715      C4844   1.502       .  S
C3716      C4712   1.506       .  S
C3717      C4697   1.469       .  S
C3718      C4688   1.484       .  S
O3720      V3727   1.922       .  S
O3720      C3730   1.270       .  A
O3721      V3727   1.887       .  S
O3721      C3731   1.261       .  A
O3722      C3732   1.262       .  A
O3723      C3732   1.266       .  A
O3724      V3728   1.904       .  S
O3724      C3731   1.266       .  A
O3726      V3728   1.907       .  S
O3726      C3729   1.265       .  A
V3727      V3728   2.085       .  T
C3729      C4793   1.499       .  S
C3730      C4673   1.502       .  S
C3731      C4664   1.476       .  S
C3732      C4649   1.479       .  S
O3733      V3741   1.922       .  S
O3734      V3741   1.920       .  S
O3735      V3741   1.894       .  S
O3735      C3745   1.262       .  A
O3736      V3741   1.891       .  S
O3736      C3746   1.262       .  A
O3737      V3742   1.897       .  S
O3738      V3742   1.902       .  S
O3739      V3742   1.900       .  S
O3739      C3744   1.263       .  A
O3740      V3742   1.897       .  S
O3740      C3743   1.265       .  A
C3743      C4637   1.497       .  S
C3744      C4769   1.490       .  S
C3745      C4685   1.485       .  S
C3746      C4700   1.472       .  S
O3747      V3755   1.909       .  S
O3747      C3757   1.267       .  A
O3748      V3755   1.910       .  S
O3748      C3758   1.266       .  A
O3749      V3755   1.896       .  S
O3749      C3759   1.263       .  A
O3750      V3755   1.891       .  S
O3750      C3760   1.262       .  A
O3751      V3756   1.897       .  S
O3751      C3760   1.266       .  A
O3752      V3756   1.902       .  S
O3752      C3759   1.266       .  A
O3753      V3756   1.912       .  S
O3753      C3758   1.267       .  A
O3754      V3756   1.911       .  S
O3754      C3757   1.267       .  A
V3755      V3756   2.083       .  T
C3757      C4625   1.495       .  S
C3758      C4724   1.489       .  S
C3759      C4652   1.481       .  S
C3760      C4661   1.477       .  S
O3762      V3769   1.913   1_655  S
O3763      V3769   1.904   1_565  S
O3763      C3773   1.265       .  A
O3764      C3774   1.264       .  A
O3766      V3770   1.889       .  S
O3768      V3770   1.913   1_545  S
O3768      C3771   1.267       .  A
C3771      C4616   1.492       .  S
C3772      C4601   1.492       .  S
C3773      C4580   1.480       .  S
C3774      C4589   1.484       .  S
O3775      V3783   1.912       .  S
O3776      V3783   1.913       .  S
O3777      V3783   1.897       .  S
O3777      C3787   1.265       .  A
O3778      V3783   1.897       .  S
O3778      C3788   1.264       .  A
O3779      V3784   1.895       .  S
O3780      V3784   1.902       .  S
O3781      V3784   1.912       .  S
O3781      C3786   1.267       .  A
O3782      V3784   1.915       .  S
O3782      C3785   1.268       .  A
C3785      C4565   1.500       .  S
C3786      C4553   1.492       .  S
C3787      C4592   1.484       .  S
C3788      C4577   1.482       .  S
O3790      V3797   1.910       .  S
O3790      C3800   1.266       .  A
O3791      V3797   1.903       .  S
O3791      C3801   1.266       .  A
O3792      C3802   1.266       .  A
O3793      C3802   1.262       .  A
O3794      V3798   1.897       .  S
O3794      C3801   1.263       .  A
O3796      V3798   1.920       .  S
O3796      C3799   1.269       .  A
V3797      V3798   2.083       .  T
C3799      C4541   1.504       .  S
C3800      C4529   1.494       .  S
C3801      C4517   1.489       .  S
C3802      C4508   1.475       .  S
O3803      V3811   1.916       .  S
O3803      C3813   1.269       .  A
O3804      V3811   1.919       .  S
O3804      C3814   1.269       .  A
O3805      V3811   1.890       .  S
O3805      C3815   1.262       .  A
O3806      V3811   1.895       .  S
O3806      C3816   1.264       .  A
O3807      V3812   1.903       .  S
O3807      C3816   1.265       .  A
O3808      V3812   1.900       .  S
O3808      C3815   1.264       .  A
O3809      V3812   1.908       .  S
O3809      C3814   1.266       .  A
O3810      V3812   1.911       .  S
O3810      C3813   1.266       .  A
V3811      V3812   2.084       .  T
C3813      C4484   1.497       .  S
C3814      C4496   1.498       .  S
C3815      C4505   1.474       .  S
C3816      C4520   1.488       .  S
O3818      V3825   1.901       .  S
O3819      V3825   1.903   1_565  S
O3819      C3829   1.266       .  A
O3820      C3830   1.263       .  A
O3822      V3826   1.897   1_565  S
O3824      V3826   1.910       .  S
O3824      C3827   1.268       .  A
C3827      C4469   1.491       .  S
C3828      C4613   1.491       .  S
C3829      C4445   1.486       .  S
C3830      C4457   1.477       .  S
O3831      V3839   1.916       .  S
O3832      V3839   1.909       .  S
O3833      V3839   1.898       .  S
O3833      C3843   1.265       .  A
O3834      V3839   1.898       .  S
O3834      C3844   1.263       .  A
O3835      V3840   1.904       .  S
O3836      V3840   1.900       .  S
O3837      V3840   1.918       .  S
O3837      C3842   1.269       .  A
O3838      V3840   1.916       .  S
O3838      C3841   1.267       .  A
C3841      C4433   1.491       .  S
C3842      C4568   1.500       .  S
C3843      C4460   1.475       .  S
C3844      C4448   1.489       .  S
O3846      V3853   1.908       .  S
O3846      C3856   1.267       .  A
O3847      V3853   1.905       .  S
O3847      C3857   1.265       .  A
O3848      C3858   1.265       .  A
O3849      C3858   1.263       .  A
O3850      V3854   1.900       .  S
O3850      C3857   1.265       .  A
O3852      V3854   1.922       .  S
O3852      C3855   1.270   1_565  A
V3853      V3854   2.083       .  T
C3855      C4544   1.506       .  S
C3856      C4424   1.495       .  S
C3857      C4397   1.480       .  S
C3858      C4409   1.476       .  S
O3859      V3867   1.915       .  S
O3859      C3869   1.266       .  A
O3860      V3867   1.914       .  S
O3860      C3870   1.268       .  A
O3861      V3867   1.904       .  S
O3861      C3871   1.265       .  A
O3862      V3867   1.898       .  S
O3862      C3872   1.264       .  A
O3863      V3868   1.905       .  S
O3863      C3872   1.265       .  A
O3864      V3868   1.901       .  S
O3864      C3871   1.264       .  A
O3865      V3868   1.914       .  S
O3865      C3870   1.268       .  A
O3866      V3868   1.911       .  S
O3866      C3869   1.268       .  A
V3867      V3868   2.085       .  T
C3869      C4385   1.495       .  S
C3870      C4493   1.499       .  S
C3871      C4412   1.480       .  S
C3872      C4400   1.479       .  S
O3874      V3881   1.917       .  S
O3875      V3881   1.899       .  S
O3875      C3885   1.263       .  A
O3876      C3886   1.264       .  A
O3878      V3882   1.900       .  S
O3880      V3882   1.906       .  S
O3880      C3883   1.266       .  A
C3883      C4364   1.494       .  S
C3884      C4376   1.505       .  S
C3885      C4337   1.480       .  S
C3886      C4349   1.475       .  S
O3888      V3895   1.918       .  S
O3888      C3898   1.269       .  A
O3889      V3895   1.902       .  S
O3889      C3899   1.266       .  A
O3890      C3900   1.264       .  A
O3891      C3900   1.263       .  A
O3892      V3896   1.890       .  S
O3892      C3899   1.262       .  A
O3894      V3896   1.912       .  S
O3894      C3897   1.267       .  A
V3895      V3896   2.085       .  T
C3897      C4316   1.495       .  S
C3898      C4328   1.502       .  S
C3899      C4301   1.482       .  S
C3900      C4289   1.476       .  S
O3901      V3909   1.923       .  S
O3902      V3909   1.921       .  S
O3903      V3909   1.890       .  S
O3903      C3913   1.262       .  A
O3904      V3909   1.895       .  S
O3904      C3914   1.264       .  A
O3905      V3910   1.901       .  S
O3906      V3910   1.899       .  S
O3907      V3910   1.907       .  S
O3907      C3912   1.266       .  A
O3908      V3910   1.909       .  S
O3908      C3911   1.267       .  A
C3911      C4280   1.502       .  S
C3912      C4265   1.495       .  S
C3913      C4340   1.472       .  S
C3914      C4352   1.478       .  S
O3915      V3923   1.906       .  S
O3915      C3925   1.265       .  A
O3916      V3923   1.910       .  S
O3916      C3926   1.267       .  A
O3917      V3923   1.895       .  S
O3917      C3927   1.264       .  A
O3918      V3923   1.891       .  S
O3918      C3928   1.264       .  A
O3919      V3924   1.899       .  S
O3919      C3928   1.264       .  A
O3920      V3924   1.899       .  S
O3920      C3927   1.264       .  A
O3921      V3924   1.922       .  S
O3921      C3926   1.270       .  A
O3922      V3924   1.919       .  S
O3922      C3925   1.269       .  A
V3923      V3924   2.084       .  T
C3925      C4253   1.493       .  S
C3926      C4244   1.502       .  S
C3927      C4292   1.474       .  S
C3928      C4304   1.480       .  S
O3930      V3937   1.909       .  S
O3931      V3937   1.895       .  S
O3931      C3941   1.263       .  A
O3932      C3942   1.264       .  A
O3934      V3938   1.891       .  S
O3936      V3938   1.914       .  S
O3936      C3939   1.268       .  A
C3939      C4373   1.497       .  S
C3940      C4604   1.496       .  S
C3941      C4229   1.476       .  S
C3942      C4220   1.478       .  S
O3944      V3951   1.914       .  S
O3944      C3954   1.268       .  A
O3945      V3951   1.890       .  S
O3945      C3955   1.263       .  A
O3946      C3956   1.265       .  A
O3947      C3956   1.263       .  A
O3948      V3952   1.893       .  S
O3948      C3955   1.262       .  A
O3950      V3952   1.909       .  S
O3950      C3953   1.268       .  A
V3951      V3952   2.084       .  T
C3953      C4325   1.503       .  S
C3954      C4556   1.497       .  S
C3955      C4205   1.474       .  S
C3956      C4193   1.483       .  S
O3957      V3965   1.919       .  S
O3958      V3965   1.921       .  S
O3959      V3965   1.899       .  S
O3959      C3969   1.264       .  A
O3960      V3965   1.893       .  S
O3960      C3970   1.263       .  A
O3961      V3966   1.895       .  S
O3962      V3966   1.898       .  S
O3963      V3966   1.910       .  S
O3963      C3968   1.267       .  A
O3964      V3966   1.910       .  S
O3964      C3967   1.266       .  A
C3967      C4532   1.499       .  S
C3968      C4277   1.505       .  S
C3969      C4217   1.478       .  S
C3970      C4232   1.477       .  S
O3971      V3979   1.906       .  S
O3971      C3981   1.265       .  A
O3972      V3979   1.907       .  S
O3972      C3982   1.265       .  A
O3973      V3979   1.905       .  S
O3973      C3983   1.268       .  A
O3974      V3979   1.897       .  S
O3974      C3984   1.265       .  A
O3975      V3980   1.888       .  S
O3975      C3984   1.261       .  A
O3976      V3980   1.888       .  S
O3976      C3983   1.260       .  A
O3977      V3980   1.918       .  S
O3977      C3982   1.269       .  A
O3978      V3980   1.919       .  S
O3978      C3981   1.269       .  A
V3979      V3980   2.085       .  T
C3981      C4481   1.493       .  S
C3982      C4256   1.492       .  S
C3983      C4196   1.485       .  S
C3984      C4208   1.477       .  S
O3986      V3993   1.906       .  S
O3987      V3993   1.898       .  S
O3987      C3997   1.264       .  A
O3988      C3998   1.264       .  A
O3990      V3994   1.900       .  S
O3992      V3994   1.926       .  S
O3992      C3995   1.271       .  A
C3995      C4709   1.504       .  S
C3996      C4361   1.495       .  S
C3997      C4184   1.477       .  S
C3998      C4172   1.481       .  S
O4000      V4007   1.923       .  S
O4000      C4010   1.270       .  A
O4001      V4007   1.893       .  S
O4001      C4011   1.263       .  A
O4002      C4012   1.261       .  A
O4003      C4012   1.264       .  A
O4004      V4008   1.897       .  S
O4004      C4011   1.264       .  A
O4006      V4008   1.906       .  S
O4006      C4009   1.266       .  A
V4007      V4008   2.085       .  T
C4009      C4676   1.500       .  S
C4010      C4313   1.498       .  S
C4011      C4157   1.477       .  S
C4012      C4145   1.474       .  S
O4013      V4021   1.916       .  S
O4014      V4021   1.920       .  S
O4015      V4021   1.894       .  S
O4015      C4025   1.264       .  A
O4016      V4021   1.902       .  S
O4016      C4026   1.266       .  A
O4017      V4022   1.897       .  S
O4018      V4022   1.896       .  S
O4019      V4022   1.902       .  S
O4019      C4024   1.266       .  A
O4020      V4022   1.908       .  S
O4020      C4023   1.266       .  A
C4023      C4268   1.494       .  S
C4024      C4640   1.499       .  S
C4025      C4169   1.469       .  S
C4026      C4181   1.481       .  S
O4027      V4035   1.904       .  S
O4027      C4037   1.265       .  A
O4028      V4035   1.904       .  S
O4028      C4038   1.265       .  A
O4029      V4035   1.893       .  S
O4029      C4039   1.263       .  A
O4030      V4035   1.898       .  S
O4030      C4040   1.265       .  A
O4031      V4036   1.898       .  S
O4031      C4040   1.263       .  A
O4032      V4036   1.897       .  S
O4032      C4039   1.263       .  A
O4033      V4036   1.921       .  S
O4033      C4038   1.269       .  A
O4034      V4036   1.922       .  S
O4034      C4037   1.270       .  A
V4035      V4036   2.086       .  T
C4037      C4241   1.497       .  S
C4038      C4628   1.496       .  S
C4039      C4148   1.473       .  S
C4040      C4160   1.480       .  S
O4042      V4049   1.911       .  S
O4043      V4049   1.907       .  S
O4043      C4053   1.266       .  A
O4044      C4054   1.264       .  A
O4046      V4050   1.900       .  S
O4048      V4050   1.916       .  S
O4048      C4051   1.268       .  A
C4051      C4853   1.494       .  S
C4052      C4472   1.499       .  S
C4053      C4121   1.484       .  S
C4054      C4133   1.480       .  S
O4055      V4063   1.909       .  S
O4056      V4063   1.916       .  S
O4057      V4063   1.903       .  S
O4057      C4067   1.266       .  A
O4058      V4063   1.902       .  S
O4058      C4068   1.265       .  A
O4059      V4064   1.897       .  S
O4060      V4064   1.896       .  S
O4061      V4064   1.922       .  S
O4061      C4066   1.269       .  A
O4062      V4064   1.919       .  S
O4062      C4065   1.269       .  A
C4065      C4808   1.496       .  S
C4066      C4436   1.492       .  S
C4067      C4136   1.481       .  S
C4068      C4124   1.480       .  S
O4070      V4077   1.898       .  S
O4070      C4080   1.264       .  A
O4071      V4077   1.897   1_565  S
O4071      C4081   1.264       .  A
O4072      C4082   1.264       .  A
O4073      C4082   1.265       .  A
O4074      V4078   1.901   1_565  S
O4074      C4081   1.264       .  A
O4076      V4078   1.918       .  S
O4076      C4079   1.269       .  A
V4077      V4078   2.086       .  T
C4079      C4421   1.495       .  S
C4080      C4781   1.490       .  S
C4081      C4097   1.477       .  S
C4082      C4109   1.481       .  S
O4083      V4091   1.902       .  S
O4083      C4093   1.265       .  A
O4084      V4091   1.903       .  S
O4084      C4094   1.265       .  A
O4085      V4091   1.900       .  S
O4085      C4095   1.264       .  A
O4086      V4091   1.899       .  S
O4086      C4096   1.265       .  A
O4087      V4092   1.903       .  S
O4087      C4096   1.264       .  A
O4088      V4092   1.901       .  S
O4088      C4095   1.265       .  A
O4089      V4092   1.918       .  S
O4089      C4094   1.269       .  A
O4090      V4092   1.918       .  S
O4090      C4093   1.268       .  A
V4091      V4092   2.084       .  T
C4093      C4388   1.491       .  S
C4094      C4736   1.496       .  S
C4095      C4112   1.481       .  S
C4096      C4100   1.481       .  S
C4097      C4098   1.401       .  A
C4097      C4102   1.415       .  A
C4098      C4099   1.396       .  A
C4098      H4107   1.084       .  S
C4099      C4100   1.415       .  A
C4099      S4103   1.803       .  S
C4100      C4101   1.406       .  A
C4101      C4102   1.403       .  A
C4101      H4108   1.084       .  S
C4102      S4104   1.804       .  S
S4103      H4106   1.406       .  S
S4104      H4105   1.407       .  S
C4109      C4110   1.404       .  A
C4109      C4114   1.415       .  A
C4110      C4111   1.400       .  A
C4110      H4119   1.085       .  S
C4111      C4112   1.413       .  A
C4111      S4115   1.799       .  S
C4112      C4113   1.403       .  A
C4113      C4114   1.400       .  A
C4113      H4120   1.084       .  S
C4114      S4116   1.802       .  S
S4115      H4118   1.407       .  S
S4116      H4117   1.407       .  S
C4121      C4122   1.404       .  A
C4122      C4123   1.402       .  A
C4122      H4131   1.084       .  S
C4123      C4124   1.416       .  A
C4123      S4127   1.803       .  S
C4125      C4126   1.398       .  A
C4125      H4132   1.084       .  S
C4126      S4128   1.795       .  S
S4127      H4130   1.406       .  S
S4128      H4129   1.404       .  S
C4133      C4138   1.414       .  A
C4134      C4135   1.400       .  A
C4134      H4143   1.084       .  S
C4135      S4139   1.800       .  S
C4136      C4137   1.402       .  A
C4137      C4138   1.399       .  A
C4137      H4144   1.084       .  S
C4138      S4140   1.800       .  S
S4139      H4142   1.407       .  S
S4140      H4141   1.405       .  S
C4145      C4146   1.405       .  A
C4145      C4150   1.412       .  A
C4146      C4147   1.397       .  A
C4146      H4155   1.085       .  S
C4147      C4148   1.413       .  A
C4147      S4151   1.804       .  S
C4148      C4149   1.403       .  A
C4149      C4150   1.396       .  A
C4149      H4156   1.084       .  S
C4150      S4152   1.803       .  S
S4151      H4154   1.407       .  S
S4152      H4153   1.407       .  S
C4157      C4158   1.403       .  A
C4157      C4162   1.412       .  A
C4158      C4159   1.401       .  A
C4158      H4167   1.083       .  S
C4159      C4160   1.414       .  A
C4159      S4163   1.806       .  S
C4160      C4161   1.404       .  A
C4161      C4162   1.401       .  A
C4161      H4168   1.083       .  S
C4162      S4164   1.809       .  S
S4163      H4166   1.407       .  S
S4164      H4165   1.406       .  S
C4169      C4170   1.397       .  A
C4170      C4171   1.393       .  A
C4170      H4179   1.084       .  S
C4171      S4175   1.788       .  S
C4172      C4173   1.405       .  A
C4173      C4174   1.400       .  A
C4173      H4180   1.083       .  S
C4174      S4176   1.803       .  S
S4175      H4178   1.396       .  S
S4176      H4177   1.407       .  S
C4181      C4182   1.406       .  A
C4182      C4183   1.401       .  A
C4182      H4191   1.084       .  S
C4183      S4187   1.803       .  S
C4184      C4185   1.401       .  A
C4185      C4186   1.397       .  A
C4185      H4192   1.084       .  S
C4186      S4188   1.797       .  S
S4187      H4190   1.406       .  S
S4188      H4189   1.407       .  S
C4193      C4194   1.404       .  A
C4193      C4198   1.416       .  A
C4194      C4195   1.399       .  A
C4194      H4203   1.084       .  S
C4195      C4196   1.419       .  A
C4195      S4199   1.801       .  S
C4196      C4197   1.404       .  A
C4197      C4198   1.398       .  A
C4197      H4204   1.084       .  S
C4198      S4200   1.803       .  S
S4199      H4202   1.407       .  S
S4200      H4201   1.408       .  S
C4205      C4206   1.403       .  A
C4205      C4210   1.414       .  A
C4206      C4207   1.399       .  A
C4206      H4215   1.083       .  S
C4207      C4208   1.416       .  A
C4207      S4211   1.810       .  S
C4208      C4209   1.404       .  A
C4209      C4210   1.395       .  A
C4209      H4216   1.084       .  S
C4210      S4212   1.803       .  S
S4211      H4214   1.407       .  S
S4212      H4213   1.408       .  S
C4217      C4222   1.415       .  A
C4218      C4219   1.398       .  A
C4218      H4227   1.083       .  S
C4219      C4220   1.415       .  A
C4219      S4223   1.804       .  S
C4221      C4222   1.399       .  A
C4221      H4228   1.084       .  S
C4222      S4224   1.803       .  S
S4223      H4226   1.407       .  S
S4224      H4225   1.407       .  S
C4229      C4234   1.414       .  A
C4230      C4231   1.394       .  A
C4230      H4239   1.084       .  S
C4231      C4232   1.414       .  A
C4231      S4235   1.803       .  S
C4233      C4234   1.397       .  A
C4233      H4240   1.084       .  S
C4234      S4236   1.803       .  S
S4235      H4238   1.406       .  S
S4236      H4237   1.408       .  S
C4241      C4242   1.405       .  A
C4241      C4246   1.418       .  A
C4242      C4243   1.409   1_556  A
C4242      H4251   1.084       .  S
C4243      C4244   1.418       .  A
C4243      S4247   1.794       .  S
C4244      C4245   1.405       .  A
C4245      C4246   1.405   1_554  A
C4245      H4252   1.083       .  S
C4246      S4248   1.802       .  S
S4247      H4250   1.407       .  S
S4248      H4249   1.406       .  S
C4253      C4254   1.405       .  A
C4253      C4258   1.416       .  A
C4254      C4255   1.409       .  A
C4254      H4263   1.080       .  S
C4255      C4256   1.414       .  A
C4255      S4259   1.802       .  S
C4256      C4257   1.406       .  A
C4257      C4258   1.406       .  A
C4257      H4264   1.083       .  S
C4258      S4260   1.804       .  S
S4259      H4262   1.407       .  S
S4260      H4261   1.406       .  S
C4265      C4270   1.416       .  A
C4266      C4267   1.410   1_554  A
C4266      H4275   1.083       .  S
C4267      S4271   1.802       .  S
C4268      C4269   1.405       .  A
C4269      C4270   1.404   1_556  A
C4269      H4276   1.084       .  S
C4270      S4272   1.803       .  S
S4271      H4274   1.406       .  S
S4272      H4273   1.407       .  S
C4277      C4282   1.420       .  A
C4278      C4279   1.412       .  A
C4278      H4287   1.085       .  S
C4279      S4283   1.800       .  S
C4280      C4281   1.406       .  A
C4281      C4282   1.406       .  A
C4281      H4288   1.084       .  S
C4282      S4284   1.803       .  S
S4283      H4286   1.406       .  S
S4284      H4285   1.408       .  S
C4289      C4290   1.402       .  A
C4289      C4294   1.414       .  A
C4290      C4291   1.398       .  A
C4290      H4299   1.083       .  S
C4291      C4292   1.413       .  A
C4291      S4295   1.804       .  S
C4292      C4293   1.403       .  A
C4293      C4294   1.399       .  A
C4293      H4300   1.085       .  S
C4294      S4296   1.803       .  S
S4295      H4298   1.407       .  S
S4296      H4297   1.406       .  S
C4301      C4302   1.406       .  A
C4301      C4306   1.417       .  A
C4302      C4303   1.400       .  A
C4302      H4311   1.082       .  S
C4303      C4304   1.415       .  A
C4303      S4307   1.804       .  S
C4304      C4305   1.402       .  A
C4305      C4306   1.398       .  A
C4305      H4312   1.081       .  S
C4306      S4308   1.809       .  S
S4307      H4310   1.407       .  S
S4308      H4309   1.406       .  S
C4313      C4314   1.405       .  A
C4314      C4315   1.405   1_556  A
C4314      H4323   1.085       .  S
C4315      C4316   1.415       .  A
C4315      S4319   1.796       .  S
C4317      C4318   1.406   1_554  A
C4317      H4324   1.085       .  S
C4318      S4320   1.790       .  S
S4319      H4322   1.407       .  S
S4320      H4321   1.407       .  S
C4325      C4330   1.420       .  A
C4326      C4327   1.403       .  A
C4326      H4335   1.084       .  S
C4327      S4331   1.801       .  S
C4328      C4329   1.409       .  A
C4329      C4330   1.415       .  A
C4329      H4336   1.083       .  S
C4330      S4332   1.808       .  S
S4331      H4334   1.406       .  S
S4332      H4333   1.407       .  S
C4337      C4342   1.416       .  A
C4338      C4339   1.398       .  A
C4338      H4347   1.085       .  S
C4339      S4343   1.803       .  S
C4340      C4341   1.400       .  A
C4341      C4342   1.395       .  A
C4341      H4348   1.084       .  S
C4342      S4344   1.795       .  S
S4343      H4346   1.408       .  S
S4344      H4345   1.396       .  S
C4349      C4350   1.401       .  A
C4350      C4351   1.394       .  A
C4350      H4359   1.085       .  S
C4351      C4352   1.414       .  A
C4351      S4355   1.797       .  S
C4353      C4354   1.402       .  A
C4353      H4360   1.083       .  S
C4354      S4356   1.803       .  S
S4355      H4358   1.406       .  S
S4356      H4357   1.408       .  S
C4362      C4363   1.410   1_556  A
C4362      H4371   1.083       .  S
C4363      S4367   1.802       .  S
C4365      C4366   1.403   1_554  A
C4365      H4372   1.084       .  S
C4366      S4368   1.803       .  S
S4367      H4370   1.406       .  S
S4368      H4369   1.407       .  S
C4374      C4375   1.405       .  A
C4374      H4383   1.084       .  S
C4375      S4379   1.796       .  S
C4377      C4378   1.405       .  A
C4377      H4384   1.084       .  S
C4378      S4380   1.800       .  S
S4379      H4382   1.399       .  S
S4380      H4381   1.408       .  S
C4385      C4386   1.409       .  A
C4385      C4390   1.414       .  A
C4386      C4387   1.411       .  A
C4386      H4395   1.082       .  S
C4387      C4388   1.416       .  A
C4387      S4391   1.804       .  S
C4388      C4389   1.404       .  A
C4389      C4390   1.401       .  A
C4389      H4396   1.084       .  S
C4390      S4392   1.801       .  S
S4391      H4394   1.405       .  S
S4392      H4393   1.405       .  S
C4397      C4398   1.402       .  A
C4397      C4402   1.416       .  A
C4398      C4399   1.397       .  A
C4398      H4407   1.084       .  S
C4399      C4400   1.413       .  A
C4399      S4403   1.801       .  S
C4400      C4401   1.404       .  A
C4401      C4402   1.403       .  A
C4401      H4408   1.084       .  S
C4402      S4404   1.801       .  S
S4403      H4406   1.405       .  S
S4404      H4405   1.407       .  S
C4409      C4410   1.403       .  A
C4409      C4414   1.412       .  A
C4410      C4411   1.400       .  A
C4410      H4419   1.084       .  S
C4411      C4412   1.414       .  A
C4411      S4415   1.800       .  S
C4412      C4413   1.405       .  A
C4413      C4414   1.400       .  A
C4413      H4420   1.082       .  S
C4414      S4416   1.804       .  S
S4415      H4418   1.407       .  S
S4416      H4417   1.408       .  S
C4421      C4422   1.406   1_545  A
C4422      C4423   1.405       .  A
C4422      H4431   1.083       .  S
C4423      C4424   1.415       .  A
C4423      S4427   1.803       .  S
C4425      C4426   1.409       .  A
C4425      H4432   1.084       .  S
C4426      S4428   1.803       .  S
S4427      H4430   1.407       .  S
S4428      H4429   1.407       .  S
C4433      C4438   1.415       .  A
C4434      C4435   1.410       .  A
C4434      H4443   1.084       .  S
C4435      S4439   1.798       .  S
C4436      C4437   1.404       .  A
C4437      C4438   1.408       .  A
C4437      H4444   1.083       .  S
C4438      S4440   1.801       .  S
S4439      H4442   1.405       .  S
S4440      H4441   1.405       .  S
C4445      C4446   1.403       .  A
C4446      C4447   1.400       .  A
C4446      H4455   1.083       .  S
C4447      C4448   1.420       .  A
C4447      S4451   1.804       .  S
C4449      C4450   1.400       .  A
C4449      H4456   1.083       .  S
C4450      S4452   1.803       .  S
S4451      H4454   1.399       .  S
S4452      H4453   1.408       .  S
C4457      C4458   1.403       .  A
C4458      C4459   1.396       .  A
C4458      H4467   1.085       .  S
C4459      C4460   1.412       .  A
C4459      S4463   1.804       .  S
C4461      C4462   1.401       .  A
C4461      H4468   1.084       .  S
C4462      S4464   1.804       .  S
S4463      H4466   1.406       .  S
S4464      H4465   1.406       .  S
C4470      C4471   1.407       .  A
C4470      H4479   1.084       .  S
C4471      S4475   1.798       .  S
C4473      C4474   1.406       .  A
C4473      H4480   1.084       .  S
C4474      S4476   1.803       .  S
S4475      H4478   1.390       .  S
C4481      C4482   1.407       .  A
C4481      C4486   1.415       .  A
C4482      C4483   1.406       .  A
C4482      H4491   1.085       .  S
C4483      C4484   1.416       .  A
C4483      S4487   1.802       .  S
C4484      C4485   1.409       .  A
C4485      C4486   1.409       .  A
C4485      H4492   1.084       .  S
C4486      S4488   1.803       .  S
S4487      H4490   1.407       .  S
S4488      H4489   1.407       .  S
C4493      C4494   1.407       .  A
C4493      C4498   1.419       .  A
C4494      C4495   1.407       .  A
C4494      H4503   1.084       .  S
C4495      C4496   1.417       .  A
C4495      S4499   1.803       .  S
C4496      C4497   1.406       .  A
C4497      C4498   1.409       .  A
C4497      H4504   1.084       .  S
C4498      S4500   1.803       .  S
S4499      H4502   1.408       .  S
S4500      H4501   1.407       .  S
C4505      C4506   1.404       .  A
C4505      C4510   1.413       .  A
C4506      C4507   1.404       .  A
C4506      H4515   1.084       .  S
C4507      C4508   1.412       .  A
C4507      S4511   1.807       .  S
C4508      C4509   1.402       .  A
C4509      C4510   1.393       .  A
C4509      H4516   1.085       .  S
C4510      S4512   1.804       .  S
S4511      H4514   1.407       .  S
S4512      H4513   1.408       .  S
C4517      C4518   1.406       .  A
C4517      C4522   1.418       .  A
C4518      C4519   1.400       .  A
C4518      H4527   1.085       .  S
C4519      C4520   1.415       .  A
C4519      S4523   1.802       .  S
C4520      C4521   1.406       .  A
C4521      C4522   1.403       .  A
C4521      H4528   1.083       .  S
C4522      S4524   1.811       .  S
S4523      H4526   1.408       .  S
S4524      H4525   1.407       .  S
C4529      C4530   1.406       .  A
C4530      C4531   1.409       .  A
C4530      H4539   1.082       .  S
C4531      C4532   1.419       .  A
C4531      S4535   1.802       .  S
C4533      C4534   1.407       .  A
C4533      H4540   1.083       .  S
C4534      S4536   1.798       .  S
S4535      H4538   1.408       .  S
S4536      H4537   1.404       .  S
C4541      C4546   1.420       .  A
C4542      C4543   1.408       .  A
C4542      H4551   1.082       .  S
C4543      C4544   1.420   1_565  A
C4543      S4547   1.809       .  S
C4545      C4546   1.413       .  A
C4545      H4552   1.083       .  S
C4546      S4548   1.801       .  S
S4547      H4550   1.407       .  S
S4548      H4549   1.407       .  S
C4553      C4554   1.405       .  A
C4554      C4555   1.406       .  A
C4554      H4563   1.084       .  S
C4555      C4556   1.418       .  A
C4555      S4559   1.802       .  S
C4557      C4558   1.408       .  A
C4557      H4564   1.083       .  S
C4558      S4560   1.802       .  S
S4559      H4562   1.407       .  S
S4560      H4561   1.407       .  S
C4565      C4566   1.407       .  A
C4566      C4567   1.409       .  A
C4566      H4575   1.083       .  S
C4567      C4568   1.418       .  A
C4567      S4571   1.800       .  S
C4569      C4570   1.406       .  A
C4569      H4576   1.083       .  S
C4570      S4572   1.802   1_455  S
S4571      H4574   1.407       .  S
S4572      H4573   1.408   1_655  S
C4577      C4578   1.406       .  A
C4578      C4579   1.400   1_455  A
C4578      H4587   1.084   1_455  S
C4579      C4580   1.414   1_655  A
C4579      S4583   1.802       .  S
C4581      C4582   1.396       .  A
C4581      H4588   1.084       .  S
C4582      S4584   1.804       .  S
S4583      H4586   1.407       .  S
S4584      H4585   1.408       .  S
C4589      C4590   1.406       .  A
C4590      C4591   1.402       .  A
C4590      H4599   1.084       .  S
C4591      C4592   1.416       .  A
C4591      S4595   1.802       .  S
C4593      C4594   1.397       .  A
C4593      H4600   1.084       .  S
C4594      S4596   1.803       .  S
S4595      H4598   1.408       .  S
S4596      H4597   1.407       .  S
C4601      C4606   1.415       .  A
C4602      C4603   1.408       .  A
C4602      H4611   1.083       .  S
C4603      S4607   1.803       .  S
C4604      C4605   1.405       .  A
C4605      C4606   1.402       .  A
C4605      H4612   1.084       .  S
C4606      S4608   1.802       .  S
S4607      H4610   1.407       .  S
S4608      H4609   1.403       .  S
C4613      C4614   1.407   1_545  A
C4614      C4615   1.409       .  A
C4614      H4623   1.083       .  S
C4615      C4616   1.418   1_565  A
C4615      S4619   1.803       .  S
C4617      C4618   1.402       .  A
C4617      H4624   1.084       .  S
C4618      S4620   1.802       .  S
S4619      H4622   1.407       .  S
S4620      H4621   1.406       .  S
C4625      C4626   1.407       .  A
C4625      C4630   1.415       .  A
C4626      C4627   1.406       .  A
C4626      H4635   1.085       .  S
C4627      C4628   1.415       .  A
C4627      S4631   1.797       .  S
C4628      C4629   1.407       .  A
C4629      C4630   1.409       .  A
C4629      H4636   1.084       .  S
C4630      S4632   1.808       .  S
S4631      H4634   1.404       .  S
S4632      H4633   1.406       .  S
C4637      C4638   1.405       .  A
C4638      C4639   1.399       .  A
C4638      H4647   1.083       .  S
C4639      C4640   1.416       .  A
C4639      S4643   1.800       .  S
C4641      C4642   1.412       .  A
C4641      H4648   1.083       .  S
C4642      S4644   1.801       .  S
S4643      H4646   1.405       .  S
S4644      H4645   1.407       .  S
C4649      C4650   1.403       .  A
C4649      C4654   1.416       .  A
C4650      C4651   1.404       .  A
C4650      H4659   1.083       .  S
C4651      C4652   1.415       .  A
C4651      S4655   1.808       .  S
C4652      C4653   1.403       .  A
C4653      C4654   1.398       .  A
C4653      H4660   1.085       .  S
C4654      S4656   1.804       .  S
S4655      H4658   1.407       .  S
S4656      H4657   1.407       .  S
C4661      C4662   1.401       .  A
C4661      C4666   1.416       .  A
C4662      C4663   1.392       .  A
C4662      H4671   1.086       .  S
C4663      C4664   1.415       .  A
C4663      S4667   1.801       .  S
C4664      C4665   1.402       .  A
C4665      C4666   1.404       .  A
C4665      H4672   1.084       .  S
C4666      S4668   1.809       .  S
S4667      H4670   1.402       .  S
S4668      H4669   1.407       .  S
C4673      C4678   1.419       .  A
C4674      C4675   1.410       .  A
C4674      H4683   1.084       .  S
C4675      S4679   1.802       .  S
C4676      C4677   1.405       .  A
C4677      C4678   1.403       .  A
C4677      H4684   1.083       .  S
C4678      S4680   1.803       .  S
S4679      H4682   1.407       .  S
S4680      H4681   1.408       .  S
C4685      C4690   1.420       .  A
C4686      C4687   1.397       .  A
C4686      H4695   1.085       .  S
C4687      C4688   1.416       .  A
C4687      S4691   1.802       .  S
C4689      C4690   1.398       .  A
C4689      H4696   1.085       .  S
C4690      S4692   1.803       .  S
S4691      H4694   1.408       .  S
S4692      H4693   1.400       .  S
C4697      C4702   1.413       .  A
C4698      C4699   1.396       .  A
C4698      H4707   1.083       .  S
C4699      C4700   1.413       .  A
C4699      S4703   1.803   1_565  S
C4701      C4702   1.395       .  A
C4701      H4708   1.084       .  S
C4702      S4704   1.804       .  S
S4703      H4706   1.407   1_545  S
S4704      H4705   1.407       .  S
C4710      C4711   1.412       .  A
C4710      H4719   1.083       .  S
C4711      S4715   1.799       .  S
C4713      C4714   1.403       .  A
C4713      H4720   1.084       .  S
C4714      S4716   1.802       .  S
S4715      H4718   1.406       .  S
S4716      H4717   1.406       .  S
C4721      C4722   1.406       .  A
C4721      C4726   1.420       .  A
C4722      C4723   1.406       .  A
C4722      H4731   1.084       .  S
C4723      C4724   1.416       .  A
C4723      S4727   1.802       .  S
C4724      C4725   1.403       .  A
C4725      C4726   1.405       .  A
C4725      H4732   1.084       .  S
C4726      S4728   1.802       .  S
S4727      H4730   1.406       .  S
S4728      H4729   1.406       .  S
C4733      C4734   1.406       .  A
C4733      C4738   1.417       .  A
C4734      C4735   1.408       .  A
C4734      H4743   1.083       .  S
C4735      C4736   1.418       .  A
C4735      S4739   1.799       .  S
C4736      C4737   1.405       .  A
C4737      C4738   1.403       .  A
C4737      H4744   1.084       .  S
C4738      S4740   1.803       .  S
S4739      H4742   1.407       .  S
S4740      H4741   1.407       .  S
C4745      C4746   1.404       .  A
C4745      C4750   1.416       .  A
C4746      C4747   1.399       .  A
C4746      H4755   1.086       .  S
C4747      C4748   1.416       .  A
C4747      S4751   1.803       .  S
C4748      C4749   1.402       .  A
C4749      C4750   1.394       .  A
C4749      H4756   1.085       .  S
C4750      S4752   1.802       .  S
S4751      H4754   1.408       .  S
S4752      H4753   1.404       .  S
C4757      C4758   1.409       .  A
C4757      C4762   1.416       .  A
C4758      C4759   1.407       .  A
C4758      H4767   1.082       .  S
C4759      C4760   1.417       .  A
C4759      S4763   1.810       .  S
C4760      C4761   1.406       .  A
C4761      C4762   1.397       .  A
C4761      H4768   1.084       .  S
C4762      S4764   1.802       .  S
S4763      H4766   1.407       .  S
S4764      H4765   1.408       .  S
C4769      C4770   1.407       .  A
C4770      C4771   1.406       .  A
C4770      H4779   1.083       .  S
C4771      C4772   1.415       .  A
C4771      S4775   1.803       .  S
C4773      C4774   1.403       .  A
C4773      H4780   1.082       .  S
C4774      S4776   1.797       .  S
S4775      H4778   1.408       .  S
S4776      H4777   1.407       .  S
C4781      C4786   1.416   1_545  A
C4782      C4783   1.410       .  A
C4782      H4791   1.083       .  S
C4783      S4787   1.802       .  S
C4784      C4785   1.403   1_545  A
C4785      C4786   1.399       .  A
C4785      H4792   1.083       .  S
C4786      S4788   1.804       .  S
S4787      H4790   1.407       .  S
S4788      H4789   1.408       .  S
C4793      C4794   1.406       .  A
C4794      C4795   1.407       .  A
C4794      H4803   1.081       .  S
C4795      C4796   1.417       .  A
C4795      S4799   1.802       .  S
C4797      C4798   1.409   1_455  A
C4797      H4804   1.084   1_455  S
C4798      S4800   1.803       .  S
S4799      H4802   1.405       .  S
S4800      H4801   1.407       .  S
C4805      C4806   1.408       .  A
C4806      C4807   1.409       .  A
C4806      H4815   1.084       .  S
C4807      C4808   1.418       .  A
C4807      S4811   1.804       .  S
C4809      C4810   1.405       .  A
C4809      H4816   1.084       .  S
C4810      S4812   1.804       .  S
S4811      H4814   1.405       .  S
S4812      H4813   1.408       .  S
C4817      C4822   1.416       .  A
C4818      C4819   1.399       .  A
C4818      H4827   1.085       .  S
C4819      C4820   1.414       .  A
C4819      S4823   1.802   1_455  S
C4821      C4822   1.393       .  A
C4821      H4828   1.085       .  S
C4822      S4824   1.803       .  S
S4823      H4826   1.408   1_655  S
S4824      H4825   1.407       .  S
C4829      C4830   1.404       .  A
C4830      C4831   1.400       .  A
C4830      H4839   1.084       .  S
C4831      S4835   1.804       .  S
C4832      C4833   1.406       .  A
C4833      C4834   1.402       .  A
C4833      H4840   1.083   1_455  S
C4834      S4836   1.802   1_455  S
S4835      H4838   1.407       .  S
S4836      H4837   1.408       .  S
C4842      C4843   1.408       .  A
C4842      H4851   1.083       .  S
C4843      S4847   1.802       .  S
C4845      C4846   1.407       .  A
C4845      H4852   1.083   1_455  S
C4846      S4848   1.802       .  S
S4847      H4850   1.407       .  S
S4848      H4849   1.404       .  S
C4853      C4854   1.407       .  A
C4854      C4855   1.409       .  A
C4854      H4863   1.083       .  S
C4855      S4859   1.802       .  S
C4856      C4857   1.406       .  A
C4857      C4858   1.404       .  A
C4857      H4864   1.084       .  S
C4858      S4860   1.803       .  S
S4859      H4862   1.408       .  S
S4860      H4861   1.408       .  S
