geometry optimzed in LAMMPS
_audit_creation_date              2020-11-30 
_audit_creation_method            'lammps2cif' 
_symmetry_space_group_name_H-M    'P1' 
_symmetry_Int_Tables_number       1 
_symmetry_cell_setting            triclinic 
loop_ 
_symmetry_equiv_pos_as_xyz 
  x,y,z 
_cell_length_a                    55.63647861 
_cell_length_b                    56.76315788152695 
_cell_length_c                    56.26667749515895 
_cell_angle_alpha                 89.90661494156913 
_cell_angle_beta                  89.49097746938851 
_cell_angle_gamma                 89.89712855214768 
loop_ 
_atom_site_label 
_atom_site_type_symbol 
_atom_site_fract_x 
_atom_site_fract_y 
_atom_site_fract_z 
_atom_site_charge 
C1          C  0.26884235  0.85727080  0.97509850     0.80500
N2          N  0.27004298  0.84493831  0.99577857    -0.77800
C3          C  0.26870492  0.85639040  0.01689796     0.83000
N4          N  0.26628524  0.88013657  0.01733486    -0.77700
C5          C  0.26532533  0.89270844  0.99683083     0.83100
N6          N  0.26678511  0.88112265  0.97573233    -0.79400
C7          C  0.82402734  0.10272370  0.02039528     0.80500
N8          N  0.82426273  0.07900115  0.02334376    -0.77800
C9          C  0.82484719  0.06453157  0.00414865     0.83000
N10         N  0.82535391  0.07400691  0.98194619    -0.77700
C11         C  0.82511285  0.09772629  0.97899418     0.83100
N12         N  0.82432401  0.11207505  0.99822222    -0.79400
C13         C  0.92858664  0.95374799  0.28393442     0.80500
N14         N  0.95306002  0.95418460  0.28378715    -0.77800
C15         C  0.96515596  0.97467810  0.28706910     0.83000
N16         N  0.95240564  0.99471875  0.29048973    -0.77700
C17         C  0.92808627  0.99485224  0.29044609     0.83100
N18         N  0.91613911  0.97423326  0.28712517    -0.79400
C19         C  0.19000977  0.99277867  0.75608830     0.80500
N20         N  0.20115223  0.97156428  0.75437494    -0.77800
C21         C  0.18796952  0.95149381  0.75435881     0.83000
N22         N  0.16370066  0.95262462  0.75578853    -0.77700
C23         C  0.15237860  0.97376125  0.75696963     0.83100
N24         N  0.16565878  0.99376790  0.75713982    -0.79400
C25         C  0.08626040  0.69121052  0.11871239     0.80500
N26         N  0.08650117  0.68850988  0.09475259    -0.77800
C27         C  0.06585862  0.69059568  0.08222082     0.83000
N28         N  0.04481873  0.69549825  0.09367821    -0.77700
C29         C  0.04444839  0.69800561  0.11770615     0.83100
N30         N  0.06514679  0.69574808  0.13002949    -0.79400
C31         C  0.03746958  0.27878597  0.86814825     0.80500
N32         N  0.05745154  0.27914604  0.85402411    -0.77800
C33         C  0.07959159  0.28083082  0.86392401     0.83000
N34         N  0.08174214  0.28203304  0.88791010    -0.77700
C35         C  0.06193134  0.28172607  0.90214961     0.83100
N36         N  0.03991378  0.27994840  0.89209369    -0.79400
C37         C  0.83595824  0.84865399  0.01489632     0.80500
N38         N  0.83861227  0.84056561  0.99240015    -0.77800
C39         C  0.84082022  0.85579458  0.97398482     0.83000
N40         N  0.84002006  0.87935532  0.97799841    -0.77700
C41         C  0.83754023  0.88768953  0.00056369     0.83100
N42         N  0.83546694  0.87223042  0.01892836    -0.79400
C43         C  0.26147815  0.10762186  0.97948834     0.80500
N44         N  0.26297372  0.11861487  0.00088287    -0.77800
C45         C  0.26405806  0.10575167  0.02120704     0.83000
N46         N  0.26348997  0.08192656  0.02025817    -0.77700
C47         C  0.26202883  0.07084537  0.99903159     0.83100
N48         N  0.26123807  0.08370046  0.97871841    -0.79400
C49         C  0.93602857  0.96289071  0.73500435     0.80500
N50         N  0.92476492  0.98381467  0.73158069    -0.77800
C51         C  0.93683072  0.00432318  0.73409050     0.83000
N52         N  0.96046781  0.00402717  0.73955878    -0.77700
C53         C  0.97210021  0.98320332  0.74237873     0.83100
N54         N  0.95978556  0.96269477  0.74036038    -0.79400
C55         C  0.18263616  0.00418363  0.27414508     0.80500
N56         N  0.19519421  0.98366772  0.27253770    -0.77800
C57         C  0.18371352  0.96263444  0.27285527     0.83000
N58         N  0.15947653  0.96192173  0.27517840    -0.77700
C59         C  0.14674471  0.98222199  0.27732581     0.83100
N60         N  0.15828895  0.00332488  0.27661965    -0.79400
C61         C  0.05005988  0.66895610  0.86782072     0.80500
N62         N  0.05034746  0.66996899  0.89190574    -0.77800
C63         C  0.07111343  0.66656246  0.90397744     0.83000
N64         N  0.09181307  0.66271430  0.89157858    -0.77700
C65         C  0.09189004  0.66219261  0.86745447     0.83100
N66         N  0.07089075  0.66522173  0.85561793    -0.79400
C67         C  0.08712907  0.25983929  0.11512024     0.80500
N68         N  0.06799624  0.25149863  0.12758323    -0.77800
C69         C  0.04640807  0.24894697  0.11686340     0.83000
N70         N  0.04416030  0.25486205  0.09354905    -0.77700
C71         C  0.06329687  0.26318122  0.08092031     0.83100
N72         N  0.08479507  0.26556664  0.09186496    -0.79400
C73         C  0.44012501  0.49517902  0.76318553     0.80500
N74         N  0.46371071  0.49560871  0.76904967    -0.77800
C75         C  0.47583378  0.47521315  0.77288853     0.83000
N76         N  0.46427021  0.45425736  0.77075159    -0.77700
C77         C  0.44062337  0.45383151  0.76500248     0.83100
N78         N  0.42860905  0.47426073  0.76126547    -0.79400
C79         C  0.43853565  0.50441660  0.21630249     0.80500
N80         N  0.46265990  0.50430597  0.21218919    -0.77800
C81         C  0.47447803  0.48352138  0.20909757     0.83000
N82         N  0.46207161  0.46303430  0.21014083    -0.77700
C83         C  0.43806907  0.46294383  0.21434056     0.83100
N84         N  0.42630349  0.48373669  0.21742596    -0.79400
C85         C  0.37238575  0.34791096  0.52008680     0.80500
N86         N  0.37190378  0.37184954  0.52018092    -0.77800
C87         C  0.37235107  0.38421747  0.49953864     0.83000
N88         N  0.37303511  0.37224754  0.47875398    -0.77700
C89         C  0.37318908  0.34839324  0.47810437     0.83100
N90         N  0.37291044  0.33620660  0.49897663    -0.79400
Zr91       Zr  0.27111271  0.20760114  0.76611350     2.17500
O92         O  0.22864037  0.19945718  0.75964950    -0.51000
O93         O  0.26965190  0.19244555  0.80641664    -0.74200
O94         O  0.26433357  0.16625254  0.75728310    -0.81000
O95         O  0.25701972  0.27175717  0.78271497    -0.82800
O96         O  0.29909110  0.15085518  0.74314588    -0.78400
O97         O  0.24089936  0.23504760  0.77992279    -0.90000
O98         O  0.30763215  0.19366521  0.82092477    -0.76000
O99         O  0.30889533  0.18855894  0.77004989    -0.85500
O100        O  0.29520776  0.23322925  0.78939552    -0.85200
O101        O  0.28504801  0.20176915  0.72608218    -0.71900
O102        O  0.27314506  0.24378054  0.74431345    -0.84100
Zr103      Zr  0.35043737  0.24506107  0.73150436     2.26400
Zr104      Zr  0.32376967  0.18376061  0.73036410     2.06300
Zr105      Zr  0.29795604  0.26920559  0.76736062     2.10000
Zr106      Zr  0.33316902  0.21419040  0.79269559     1.78800
O107        O  0.27781971  0.30390992  0.75162071    -0.92900
O108        O  0.35529348  0.17762717  0.79880774    -0.40700
O109        O  0.33636346  0.25068095  0.77147336    -0.77300
O110        O  0.34921592  0.20882362  0.75345312    -0.96000
O111        O  0.32641700  0.21958717  0.70826602    -0.89300
O112        O  0.31269041  0.26424720  0.72766132    -0.92100
C113        C  0.28529205  0.18833835  0.82249130     1.01600
C114        C  0.23960036  0.25706439  0.78481560     1.14500
C115        C  0.27750116  0.14870933  0.75099377     1.05300
O116        O  0.34762217  0.14888475  0.73927571    -0.94300
O117        O  0.36201256  0.18258131  0.70918843    -0.90000
O118        O  0.37898547  0.21878779  0.71312002    -0.83200
C119        C  0.37916682  0.19737549  0.70610296     1.12000
O120        O  0.24591965  0.23360522  0.69598645    -0.96300
Zr121      Zr  0.28846770  0.23836661  0.70488140     1.88900
O122        O  0.35172546  0.26024417  0.69116262    -0.72900
O123        O  0.31120148  0.16778152  0.69228440    -0.52200
O124        O  0.28345156  0.21221551  0.67102746    -0.96900
O125        O  0.26926287  0.27543519  0.69390167    -0.54100
O126        O  0.31496769  0.25515109  0.67475811    -0.73400
C127        C  0.33698445  0.26189078  0.67383167     0.98900
O128        O  0.39175518  0.25607607  0.74029116    -0.62300
O129        O  0.30315028  0.28677529  0.80648311    -0.57100
O130        O  0.35951686  0.28523816  0.74159010    -0.93700
O131        O  0.32799065  0.30000510  0.76294259    -0.92200
O132        O  0.33562630  0.23635109  0.82961962    -0.92500
O133        O  0.37388245  0.22148052  0.80642591    -0.91300
C134        C  0.34881543  0.30170262  0.75306505     1.17800
H135        H  0.28798366  0.23595039  0.80482942     0.33700
H136        H  0.36511760  0.20208176  0.75463403     0.44600
H137        H  0.31448062  0.27931376  0.71984438     0.38100
H138        H  0.27427495  0.19139743  0.71776452     0.34600
H139        H  0.35382718  0.17442007  0.81605916     0.26300
H140        H  0.32373026  0.15605056  0.68811938     0.32300
H141        H  0.27924768  0.22275993  0.65765892     0.38200
H142        H  0.34043565  0.25243129  0.82468283     0.32700
H143        H  0.29113643  0.29964850  0.80719930     0.31500
H144        H  0.27933398  0.31593015  0.76424984     0.33200
H145        H  0.28255165  0.28673903  0.69126609     0.32200
H146        H  0.38343218  0.22402531  0.79171672     0.36200
H147        H  0.39884316  0.24220428  0.74829940     0.28900
H148        H  0.22412316  0.18739168  0.77158348     0.33100
H149        H  0.24386117  0.23941168  0.67952544     0.36000
H150        H  0.29712891  0.27489267  0.81794907     0.28600
H151        H  0.40017508  0.25713566  0.72474599     0.41500
H152        H  0.36121609  0.15474726  0.74882712     0.31500
H153        H  0.34537975  0.16532177  0.79124328     0.39100
H154        H  0.26129615  0.28090315  0.70870671     0.31000
H155        H  0.29671289  0.15827941  0.69587802     0.31100
H156        H  0.22785000  0.19131446  0.74412970     0.31300
C157        C  0.78694524  0.35151289  0.47782072     0.80500
N158        N  0.78545130  0.34318792  0.50039947    -0.77800
C159        C  0.78329716  0.35832599  0.51891481     0.83000
N160        N  0.78286478  0.38187516  0.51478287    -0.77700
C161        C  0.78400011  0.39042911  0.49222264     0.83100
N162        N  0.78605700  0.37510896  0.47378049    -0.79400
C163        C  0.57871782  0.18213296  0.62242701     0.80500
N164        N  0.58024557  0.18537480  0.59854220    -0.77800
C165        C  0.55996631  0.18627167  0.58531354     0.83000
N166        N  0.53819755  0.18433785  0.59614338    -0.77700
C167        C  0.53656900  0.18130525  0.62000514     0.83100
N168        N  0.55687066  0.18035181  0.63317090    -0.79400
Zr169      Zr  0.84060195  0.20441522  0.76969521     2.17500
O170        O  0.87914343  0.18409221  0.77287572    -0.51000
O171        O  0.83348738  0.18525593  0.80777115    -0.74200
O172        O  0.87133597  0.22816153  0.78895023    -0.81000
O173        O  0.82017056  0.15715203  0.72492324    -0.82800
O174        O  0.85765258  0.26548107  0.79444197    -0.78400
O175        O  0.85002578  0.16750305  0.75017791    -0.90000
O176        O  0.79596760  0.19431990  0.82101015    -0.76000
O177        O  0.81561118  0.22978072  0.79267227    -0.85500
O178        O  0.80109261  0.18854399  0.76702071    -0.85200
O179        O  0.84534431  0.24222126  0.75092500    -0.71900
O180        O  0.83117182  0.20431459  0.72814883    -0.84100
Zr181      Zr  0.76982870  0.25273946  0.72976061     2.26400
Zr182      Zr  0.81949376  0.26743684  0.77380536     2.06300
Zr183      Zr  0.79119734  0.18918002  0.72565334     2.10000
Zr184      Zr  0.77591359  0.21456323  0.78907299     1.78800
O185        O  0.79594635  0.17705639  0.68436744    -0.92900
O186        O  0.76564067  0.23751063  0.82426908    -0.40700
O187        O  0.76529560  0.21475371  0.74796715    -0.77300
O188        O  0.77919597  0.25271880  0.77138382    -0.96000
O189        O  0.80939429  0.26820148  0.73255249    -0.89300
O190        O  0.79459402  0.22692426  0.70691411    -0.92100
C191        C  0.81656922  0.18459468  0.82336673     1.01600
C192        C  0.84034153  0.15348750  0.73520854     1.14500
C193        C  0.87376745  0.24940363  0.79641151     1.05300
O194        O  0.81069863  0.28118470  0.81395387    -0.94300
O195        O  0.79366030  0.30152325  0.77010621    -0.90000
O196        O  0.76362648  0.29235571  0.74443808    -0.83200
C197        C  0.77432608  0.30621640  0.75884662     1.12000
O198        O  0.87682045  0.23401603  0.70399724    -0.96300
Zr199      Zr  0.83416844  0.24238132  0.70999998     1.88900
O200        O  0.77576933  0.27183311  0.69128949    -0.72900
O201        O  0.84505190  0.30080667  0.76362835    -0.52200
O202        O  0.85607833  0.27937712  0.70644999    -0.96900
O203        O  0.84315932  0.21950197  0.67448169    -0.54100
O204        O  0.81447444  0.26582381  0.67970936    -0.73400
C205        C  0.79336961  0.27442614  0.67658282     0.98900
O206        O  0.72956652  0.26940603  0.73421591    -0.62300
O207        O  0.77002493  0.15342871  0.73733325    -0.57100
O208        O  0.73923272  0.22950717  0.71005258    -0.93700
O209        O  0.75133965  0.19120971  0.70846215    -0.92200
O210        O  0.75392226  0.17759136  0.79240694    -0.92500
O211        O  0.73299153  0.22066079  0.79538204    -0.91300
C212        C  0.73613660  0.20778206  0.70467905     1.17800
H213        H  0.80044535  0.17267967  0.77327867     0.33700
H214        H  0.76828144  0.26297221  0.77988784     0.44600
H215        H  0.78936728  0.22606646  0.69061465     0.38100
H216        H  0.86177015  0.24760315  0.75130043     0.34600
H217        H  0.76077768  0.22570447  0.83635442     0.26300
H218        H  0.83814113  0.30735086  0.74886154     0.32300
H219        H  0.86582486  0.28033520  0.72105016     0.38200
H220        H  0.75558399  0.17270046  0.80920964     0.32700
H221        H  0.75515648  0.15902111  0.74532265     0.31500
H222        H  0.78441198  0.16395716  0.68239659     0.33200
H223        H  0.84861729  0.23125914  0.66260961     0.32200
H224        H  0.72894925  0.23425016  0.78510046     0.36200
H225        H  0.72298094  0.27065538  0.71796779     0.28900
H226        H  0.88364363  0.18485938  0.78984508     0.33100
H227        H  0.88216595  0.24441220  0.69083659     0.36000
H228        H  0.76447948  0.14644866  0.72223173     0.28600
H229        H  0.71987574  0.25704546  0.74220106     0.41500
H230        H  0.79316189  0.28419537  0.81426143     0.31500
H231        H  0.78122537  0.24357172  0.82995818     0.39100
H232        H  0.82733447  0.21411205  0.66875917     0.31000
H233        H  0.84144292  0.31277833  0.77593791     0.31100
H234        H  0.89096855  0.19413488  0.76443334     0.31300
C235        C  0.35579460  0.59796960  0.51760202     0.80500
N236        N  0.35312088  0.60962686  0.49664915    -0.77800
C237        C  0.35132833  0.59772290  0.47574882     0.83000
N238        N  0.35229273  0.57377563  0.47609001    -0.77700
C239        C  0.35525846  0.56199126  0.49687020     0.83100
N240        N  0.35704699  0.57409146  0.51751318    -0.79400
Zr241      Zr  0.35783361  0.70785331  0.72663533     2.17500
O242        O  0.40076705  0.69908928  0.72778486    -0.51000
O243        O  0.35516187  0.69295914  0.68621200    -0.74200
O244        O  0.36601957  0.66697418  0.73560207    -0.81000
O245        O  0.37177471  0.77265900  0.71208197    -0.82800
O246        O  0.33358757  0.65106262  0.75454646    -0.78400
O247        O  0.38717501  0.73550747  0.71104362    -0.90000
O248        O  0.31645937  0.69602511  0.67443687    -0.76000
O249        O  0.31953693  0.68932882  0.72521365    -0.85500
O250        O  0.33232300  0.73450420  0.70623990    -0.85200
O251        O  0.34667190  0.70099787  0.76744565    -0.71900
O252        O  0.35812616  0.74282781  0.75028754    -0.84100
Zr253      Zr  0.28131045  0.74444374  0.76932022     2.26400
Zr254      Zr  0.30758181  0.68326461  0.76569662     2.06300
Zr255      Zr  0.33186603  0.76925929  0.73004283     2.10000
Zr256      Zr  0.29389548  0.71626136  0.70540997     1.78800
O257        O  0.35191584  0.80373882  0.74613474    -0.92900
O258        O  0.27122244  0.68130852  0.69441921    -0.40700
O259        O  0.29281557  0.75152798  0.72867180    -0.77300
O260        O  0.28101476  0.70942862  0.74549804    -0.96000
O261        O  0.30697025  0.71793698  0.78974578    -0.89300
O262        O  0.31952784  0.76318195  0.77048791    -0.92100
C263        C  0.33838214  0.68970339  0.67105740     1.01600
C264        C  0.38854557  0.75776502  0.70726917     1.14500
C265        C  0.35448742  0.64976402  0.74498008     1.05300
O266        O  0.28411352  0.64897901  0.75438896    -0.94300
O267        O  0.26875886  0.68015395  0.78554332    -0.90000
O268        O  0.25356153  0.71726829  0.78873171    -0.83200
C269        C  0.25247899  0.69489592  0.79204244     1.12000
O270        O  0.38695960  0.72670108  0.79984508    -0.96300
Zr271      Zr  0.34530791  0.73647405  0.79057744     1.88900
O272        O  0.28495345  0.76150585  0.80879754    -0.72900
O273        O  0.31932342  0.66536143  0.80323396    -0.52200
O274        O  0.34761655  0.71028183  0.82482926    -0.96900
O275        O  0.36965503  0.77145080  0.79753323    -0.54100
O276        O  0.32336577  0.75779806  0.82144794    -0.73400
C277        C  0.30154365  0.76483944  0.82415733     0.98900
O278        O  0.23802255  0.75134803  0.76889683    -0.62300
O279        O  0.32557449  0.78538776  0.69044548    -0.57100
O280        O  0.27107657  0.78401535  0.75652488    -0.93700
O281        O  0.30194820  0.79982618  0.73501368    -0.92200
O282        O  0.28894158  0.74329991  0.67216570    -0.92500
O283        O  0.25118274  0.72331701  0.69930077    -0.91300
C284        C  0.28109108  0.80079827  0.74481562     1.17800
H285        H  0.33827921  0.73786981  0.69042199     0.33700
H286        H  0.26501501  0.70288829  0.74500068     0.44600
H287        H  0.31855537  0.77816984  0.77855810     0.38100
H288        H  0.35796424  0.69032462  0.77473247     0.34600
H289        H  0.26933957  0.68249169  0.67697157     0.26300
H290        H  0.31209170  0.64944011  0.80286952     0.32300
H291        H  0.35696124  0.71904450  0.83678674     0.38200
H292        H  0.27645424  0.73603639  0.66213464     0.32700
H293        H  0.30793275  0.78714651  0.68908334     0.31500
H294        H  0.35009596  0.81601287  0.73375520     0.33200
H295        H  0.35830335  0.78486327  0.79664635     0.32200
H296        H  0.24749573  0.73738681  0.70905402     0.36200
H297        H  0.23522721  0.76575039  0.77844693     0.28900
H298        H  0.40340823  0.68595562  0.71649018     0.33100
H299        H  0.39056548  0.73476954  0.81498979     0.36000
H300        H  0.33170861  0.80172169  0.69128636     0.28600
H301        H  0.23423728  0.75588245  0.75235308     0.41500
H302        H  0.28444694  0.64906121  0.73680120     0.31500
H303        H  0.28253831  0.66802684  0.69666872     0.39100
H304        H  0.37980560  0.77303166  0.78307024     0.31000
H305        H  0.33682712  0.66249161  0.80168820     0.31100
H306        H  0.40370474  0.69228450  0.74370923     0.31300
C307        C  0.68961929  0.46050884  0.78322873     0.80500
N308        N  0.66554625  0.46268044  0.78636637    -0.77800
C309        C  0.65503060  0.48426904  0.78642340     0.83000
N310        N  0.66879051  0.50374559  0.78288685    -0.77700
C311        C  0.69288134  0.50159413  0.77951160     0.83100
N312        N  0.70328610  0.47998985  0.77978150    -0.79400
C313        C  0.59034342  0.78314084  0.62722398     0.80500
N314        N  0.56833813  0.78261945  0.63792245    -0.77800
C315        C  0.54810322  0.78261598  0.62455636     0.83000
N316        N  0.54996724  0.78300588  0.60049518    -0.77700
C317        C  0.57189843  0.78366525  0.58974343     0.83100
N318        N  0.59198204  0.78364038  0.60316947    -0.79400
C319        C  0.79684244  0.60593044  0.47108763     0.80500
N320        N  0.79865581  0.61496407  0.49326782    -0.77800
C321        C  0.79740716  0.60088517  0.51260897     0.83000
N322        N  0.79499935  0.57729996  0.50992980    -0.77700
C323        C  0.79364799  0.56782685  0.48779855     0.83100
N324        N  0.79431465  0.58223339  0.46845287    -0.79400
Zr325      Zr  0.78639501  0.70413832  0.72277096     2.17500
O326        O  0.74744969  0.68460998  0.71983355    -0.51000
O327        O  0.79362877  0.68815490  0.68315983    -0.74200
O328        O  0.75514378  0.72828571  0.70476109    -0.81000
O329        O  0.80839137  0.65388252  0.76295111    -0.82800
O330        O  0.76609457  0.76677691  0.70628789    -0.78400
O331        O  0.77768492  0.66553173  0.73918740    -0.90000
O332        O  0.83091551  0.69839359  0.67025743    -0.76000
O333        O  0.81026871  0.73215945  0.70186182    -0.85500
O334        O  0.82636819  0.68886718  0.72315230    -0.85200
O335        O  0.78114415  0.73991269  0.74523532    -0.71900
O336        O  0.79699138  0.70020287  0.76387201    -0.84100
Zr337      Zr  0.85722751  0.74994023  0.76479412     2.26400
Zr338      Zr  0.80580345  0.76780390  0.72417382     2.06300
Zr339      Zr  0.83741116  0.68586472  0.76414492     2.10000
Zr340      Zr  0.85040000  0.71734135  0.70300159     1.78800
O341        O  0.83341575  0.66911730  0.80384499    -0.92900
O342        O  0.85919051  0.74207645  0.66862435    -0.40700
O343        O  0.86231905  0.71373656  0.74351758    -0.77300
O344        O  0.84655211  0.75384480  0.72370783    -0.96000
O345        O  0.81707342  0.76445416  0.76495757    -0.89300
O346        O  0.83381963  0.72175290  0.78617648    -0.92100
C347        C  0.81051379  0.68854725  0.66746108     1.01600
C348        C  0.78794541  0.65068705  0.75301775     1.14500
C349        C  0.75134050  0.75026524  0.70099852     1.05300
O350        O  0.81190694  0.78246835  0.68393403    -0.94300
O351        O  0.83089693  0.80223634  0.73008480    -0.90000
O352        O  0.86280493  0.79028102  0.75190909    -0.83200
C353        C  0.85102443  0.80596390  0.74040752     1.12000
O354        O  0.75190742  0.72464736  0.79283019    -0.96300
Zr355      Zr  0.79359517  0.73610091  0.78572319     1.88900
O356        O  0.85121048  0.76625971  0.80434277    -0.72900
O357        O  0.78400080  0.80273441  0.73735228    -0.52200
O358        O  0.76886617  0.77051847  0.79455251    -0.96900
O359        O  0.78960142  0.71047906  0.82035572    -0.54100
O360        O  0.81274905  0.75908592  0.81628155    -0.73400
C361        C  0.83364129  0.76799876  0.81914111     0.98900
O362        O  0.89629112  0.76946742  0.76438025    -0.62300
O363        O  0.85956839  0.65204030  0.74881478    -0.63100
O364        O  0.88961311  0.72543628  0.78012925    -0.93700
O365        O  0.87696912  0.68742753  0.78230776    -0.92200
O366        O  0.87358416  0.68139888  0.69675839    -0.92500
O367        O  0.89272704  0.72647782  0.69673275    -0.91300
C368        C  0.89268009  0.70365837  0.78551353     1.17800
H369        H  0.82724666  0.67365528  0.71550273     0.33700
H370        H  0.85687802  0.76500333  0.71565779     0.44600
H371        H  0.83967061  0.71966255  0.80215733     0.38100
H372        H  0.76450938  0.74474655  0.74570641     0.34600
H373        H  0.86350864  0.73093378  0.65574572     0.26300
H374        H  0.77668214  0.80939293  0.72283520     0.32300
H375        H  0.75731386  0.77151422  0.78131931     0.38200
H376        H  0.87431374  0.67936709  0.67929356     0.32700
H377        H  0.87489915  0.65864164  0.74274373     0.31500
H378        H  0.84044920  0.65313306  0.80252770     0.33200
H379        H  0.80518916  0.71151973  0.82862971     0.32200
H380        H  0.89677923  0.73728173  0.70989692     0.36200
H381        H  0.90249763  0.76832386  0.78078456     0.28900
H382        H  0.74310383  0.68508298  0.70280584     0.33100
H383        H  0.74778078  0.73069313  0.80885734     0.36000
H384        H  0.86412319  0.64293505  0.76311363     0.28600
H385        H  0.90702176  0.75936394  0.75463902     0.41500
H386        H  0.80047156  0.79576904  0.68249511     0.31500
H387        H  0.84340440  0.74858951  0.66396661     0.39100
H388        H  0.78928401  0.69432092  0.81376360     0.31000
H389        H  0.77030163  0.79659170  0.74678960     0.31100
H390        H  0.73569547  0.69504086  0.72795180     0.31300
C391        C  0.53849927  0.21571420  0.37230423     0.80500
N392        N  0.53924238  0.21339600  0.39628292    -0.77800
C393        C  0.56031948  0.21581085  0.40805238     0.83000
N394        N  0.58077387  0.22008561  0.39538336    -0.77700
C395        C  0.58014086  0.22211390  0.37134314     0.83100
N396        N  0.55895999  0.22004967  0.35982082    -0.79400
Zr397      Zr  0.79245906  0.26083238  0.27103263     2.17500
O398        O  0.79271675  0.30089978  0.28674232    -0.51000
O399        O  0.75139928  0.25349099  0.28371005    -0.74200
O400        O  0.77213513  0.28894776  0.24556347    -0.81000
O401        O  0.82296863  0.23705437  0.32692293    -0.82800
O402        O  0.78070915  0.28049813  0.20690631    -0.78400
O403        O  0.79963030  0.26691824  0.31280163    -0.90000
O404        O  0.74159549  0.21631952  0.27271469    -0.76000
O405        O  0.77613478  0.23764509  0.24002931    -0.85500
O406        O  0.79239356  0.22142899  0.28576498    -0.85200
O407        O  0.81903999  0.26741077  0.23789648    -0.71900
O408        O  0.83335808  0.25142702  0.28029640    -0.84100
Zr409      Zr  0.84357040  0.19420892  0.22919863     2.26400
Zr410      Zr  0.80295287  0.24325976  0.20696285     2.06300
Zr411      Zr  0.83333654  0.21139214  0.29374059     2.10000
Zr412      Zr  0.77657363  0.19826642  0.25460600     1.78800
O413        O  0.87080178  0.21738181  0.31490949    -0.92900
O414        O  0.74618516  0.19192481  0.22443339    -0.40700
O415        O  0.81735245  0.18755564  0.26266395    -0.77300
O416        O  0.80225374  0.20326722  0.22090437    -0.96000
O417        O  0.84400973  0.23377353  0.21514267    -0.89300
O418        O  0.86004225  0.21686987  0.26060217    -0.92100
C419        C  0.73672420  0.23615479  0.28247701     1.01600
C420        C  0.81094438  0.25624501  0.32940068     1.14500
C421        C  0.77098547  0.29329344  0.22323550     1.05300
O422        O  0.76687164  0.23941535  0.18311508    -0.94300
O423        O  0.81134183  0.21684797  0.17381797    -0.90000
O424        O  0.83520209  0.18729632  0.18766576    -0.83200
C425        C  0.82311410  0.19749818  0.17129343     1.12000
O426        O  0.86342746  0.29659498  0.26201661    -0.96300
Zr427      Zr  0.85961003  0.25659343  0.24694129     1.88900
O428        O  0.88428707  0.20269614  0.21562808    -0.72900
O429        O  0.82435435  0.26608032  0.17688350    -0.52200
O430        O  0.87090949  0.28569568  0.21704940    -0.96900
O431        O  0.89095373  0.26000175  0.27672782    -0.54100
O432        O  0.89371278  0.24021665  0.22568433    -0.73400
C433        C  0.89858457  0.22041202  0.21582362     0.98900
O434        O  0.84598172  0.15504599  0.21140805    -0.62300
O435        O  0.81685910  0.18629714  0.32501687    -0.57100
O436        O  0.86112929  0.16437616  0.25467521    -0.93700
O437        O  0.85273023  0.17283821  0.29332285    -0.92200
O438        O  0.76382619  0.17321811  0.28751028    -0.92500
O439        O  0.77332134  0.15675768  0.24425505    -0.91300
C440        C  0.86150845  0.15954687  0.27691984     1.17800
H441        H  0.78267291  0.22009200  0.30001252     0.33700
H442        H  0.79587974  0.19283891  0.20900076     0.44600
H443        H  0.87607503  0.21154390  0.26430631     0.38100
H444        H  0.81890677  0.28380381  0.23332934     0.34600
H445        H  0.73285179  0.18394662  0.23297110     0.26300
H446        H  0.81192987  0.27037049  0.16514789     0.32300
H447        H  0.87156254  0.27683455  0.20191661     0.38200
H448        H  0.77890542  0.16900825  0.29570569     0.32700
H449        H  0.82620920  0.19025997  0.33935289     0.31500
H450        H  0.87177788  0.23463274  0.31726840     0.33200
H451        H  0.90360360  0.26965567  0.26899803     0.32200
H452        H  0.79006205  0.15081032  0.24440527     0.36200
H453        H  0.86305303  0.15016259  0.21227820     0.28900
H454        H  0.77566329  0.30588880  0.28762555     0.33100
H455        H  0.84768355  0.29997681  0.26962193     0.36000
H456        H  0.80056938  0.19258080  0.32827684     0.28600
H457        H  0.83719673  0.14434820  0.22234985     0.41500
H458        H  0.75337882  0.24128966  0.19455139     0.31500
H459        H  0.73990923  0.20785309  0.22086901     0.39100
H460        H  0.89815318  0.24411278  0.27803705     0.31000
H461        H  0.82834573  0.28107193  0.18485606     0.31100
H462        H  0.80004741  0.31081436  0.27413209     0.31300
C463        C  0.53764691  0.76261472  0.37920950     0.80500
N464        N  0.54038350  0.76741199  0.40260395    -0.77800
C465        C  0.56239934  0.76570475  0.41264694     0.83000
N466        N  0.58162345  0.75920533  0.39919645    -0.77700
C467        C  0.57896579  0.75429072  0.37578693     0.83100
N468        N  0.55687390  0.75591659  0.36585556    -0.79400
C469        C  0.69186218  0.45253393  0.20389394     0.80500
N470        N  0.70375988  0.47326218  0.20673134    -0.77800
C471        C  0.69135417  0.49394107  0.20653821     0.83000
N472        N  0.66716091  0.49383058  0.20368936    -0.77700
C473        C  0.65521171  0.47322602  0.20076960     0.83100
N474        N  0.66772626  0.45271350  0.20078321    -0.79400
Zr475      Zr  0.83551060  0.75452957  0.21644540     2.17500
O476        O  0.84514905  0.78960400  0.19304980    -0.51000
O477        O  0.87583540  0.74186465  0.20489205    -0.74200
O478        O  0.85144888  0.78730962  0.23976193    -0.81000
O479        O  0.80273499  0.72740779  0.16277314    -0.82800
O480        O  0.84523543  0.78088522  0.27922223    -0.78400
O481        O  0.82643090  0.75781188  0.17464472    -0.90000
O482        O  0.88145263  0.70421018  0.21740497    -0.76000
O483        O  0.84966060  0.73421052  0.25057543    -0.85500
O484        O  0.83338056  0.71372848  0.20666117    -0.85200
O485        O  0.80817180  0.76615071  0.24762796    -0.71900
O486        O  0.79410127  0.74656343  0.20745361    -0.84100
Zr487      Zr  0.77980567  0.69574771  0.26455317     2.26400
Zr488      Zr  0.82199400  0.74493570  0.28177032     2.06300
Zr489      Zr  0.79215753  0.70547876  0.19854902     2.10000
Zr490      Zr  0.84705834  0.69338963  0.24100584     1.78800
O491        O  0.75637754  0.70982746  0.17430092    -0.92900
O492        O  0.87965826  0.69302629  0.26963434    -0.40700
O493        O  0.80607726  0.68440516  0.23265870    -0.77300
O494        O  0.82127894  0.70345505  0.27332030    -0.96000
O495        O  0.78089991  0.73651020  0.27374940    -0.89300
O496        O  0.76507546  0.71570267  0.23025769    -0.92100
C497        C  0.88803340  0.72269393  0.20613385     1.01600
C498        C  0.81499021  0.74618788  0.15888215     1.14500
C499        C  0.85298818  0.79328616  0.26173050     1.05300
O500        O  0.85560891  0.74643098  0.30901426    -0.94300
O501        O  0.81265449  0.72366232  0.31814558    -0.90000
O502        O  0.78865453  0.69350619  0.30674381    -0.83200
C503        C  0.80021166  0.70511921  0.32251683     1.12000
O504        O  0.76544939  0.79068290  0.21292792    -0.96300
Zr505      Zr  0.76727031  0.75659931  0.23930783     1.88900
O506        O  0.74007320  0.70839479  0.27725339    -0.72900
O507        O  0.79713573  0.77218782  0.30461503    -0.52200
O508        O  0.76176561  0.79244882  0.26250624    -0.96900
O509        O  0.73035228  0.75606137  0.21620917    -0.54100
O510        O  0.73598934  0.74711305  0.26786220    -0.73400
C511        C  0.72908160  0.72822141  0.27836121     0.98900
O512        O  0.76769421  0.65831967  0.28238010    -0.62300
O513        O  0.81171744  0.67731094  0.17205711    -0.57100
O514        O  0.76570494  0.66215088  0.24215549    -0.93700
O515        O  0.76983165  0.66890070  0.20244524    -0.92200
O516        O  0.85450407  0.65919378  0.21590248    -0.92500
O517        O  0.84980229  0.65584837  0.26185871    -0.91300
C518        C  0.76339754  0.65624859  0.22030720     1.17800
H519        H  0.84297723  0.70999318  0.19261551     0.33700
H520        H  0.82716016  0.69432418  0.28651415     0.44600
H521        H  0.74884651  0.71086866  0.22676872     0.38100
H522        H  0.80850711  0.78292385  0.25025497     0.34600
H523        H  0.89298119  0.68465336  0.26145951     0.26300
H524        H  0.80518258  0.77339819  0.32018483     0.32300
H525        H  0.74441121  0.79611832  0.26132639     0.38200
H526        H  0.87200822  0.65626425  0.21705149     0.32700
H527        H  0.81743053  0.66459002  0.18267003     0.31500
H528        H  0.75856463  0.69828290  0.16128319     0.33200
H529        H  0.71965689  0.74457861  0.22426383     0.32200
H530        H  0.83379529  0.65369449  0.26937338     0.36200
H531        H  0.78229134  0.65184712  0.28996020     0.28900
H532        H  0.86207933  0.79354765  0.19657626     0.33100
H533        H  0.74983145  0.79842533  0.21628336     0.36000
H534        H  0.79848017  0.67007890  0.16298114     0.28600
H535        H  0.75670921  0.66237535  0.29570142     0.41500
H536        H  0.86946914  0.74041628  0.29967867     0.31500
H537        H  0.88515145  0.70957101  0.27055260     0.39100
H538        H  0.73492527  0.74836697  0.20105098     0.31000
H539        H  0.79972928  0.78773978  0.29704118     0.31100
H540        H  0.83547465  0.80257771  0.19998345     0.31300
Zr541      Zr  0.27515819  0.75568797  0.22921816     2.17500
O542        O  0.23214301  0.76385109  0.23127084    -0.51000
O543        O  0.27954748  0.77471074  0.19061813    -0.74200
O544        O  0.26731801  0.79562381  0.24279390    -0.81000
O545        O  0.25871845  0.69347090  0.20841319    -0.82800
O546        O  0.29797584  0.80761243  0.26639977    -0.78400
O547        O  0.24620284  0.73164804  0.20848491    -0.90000
O548        O  0.31689246  0.76590345  0.17663803    -0.76000
O549        O  0.31443211  0.77224470  0.22899870    -0.85500
O550        O  0.29959028  0.72897432  0.20701617    -0.85200
O551        O  0.28587322  0.75853783  0.27045693    -0.71900
O552        O  0.27235450  0.71874571  0.24975954    -0.84100
Zr553      Zr  0.34821278  0.71090550  0.26842817     2.26400
Zr554      Zr  0.32587681  0.77443566  0.26986639     2.06300
Zr555      Zr  0.29756663  0.69227344  0.22782216     2.10000
Zr556      Zr  0.33888091  0.74527040  0.20732052     1.78800
O557        O  0.27407225  0.65917509  0.24270878    -0.92900
O558        O  0.36125400  0.78123351  0.19887333    -0.40700
O559        O  0.33760943  0.70789603  0.22725905    -0.77300
O560        O  0.35118572  0.74798906  0.24777622    -0.96000
O561        O  0.32382482  0.73754425  0.29062364    -0.89300
O562        O  0.30899440  0.69431791  0.26866838    -0.92100
C563        C  0.29602523  0.77527124  0.17451050     1.01600
C564        C  0.24369372  0.70981944  0.20318320     1.14500
C565        C  0.27777218  0.81090286  0.25592875     1.05300
O566        O  0.34851979  0.80796014  0.25461163    -0.94300
O567        O  0.36463458  0.77301507  0.29000668    -0.90000
O568        O  0.37801578  0.73515594  0.28753561    -0.83200
C569        C  0.38026415  0.75673189  0.29377742     1.12000
O570        O  0.24308377  0.73241970  0.29965587    -0.96300
Zr571      Zr  0.28448645  0.72127341  0.29040601     1.88900
O572        O  0.34279202  0.69121939  0.30664134    -0.72900
O573        O  0.32159812  0.79066928  0.30970614    -0.52200
O574        O  0.28191043  0.74455545  0.32670093    -0.96900
O575        O  0.25738745  0.68789467  0.29511430    -0.54100
O576        O  0.30467210  0.69733254  0.31999598    -0.73400
C577        C  0.32584961  0.68860390  0.32205605     0.98900
O578        O  0.39061613  0.70054174  0.27191005    -0.62300
O579        O  0.30320347  0.67485418  0.18858434    -0.57100
O580        O  0.35730590  0.67235212  0.25168412    -0.93700
O581        O  0.32565743  0.65964227  0.22998127    -0.92200
O582        O  0.34672766  0.72126624  0.17228100    -0.92500
O583        O  0.38169824  0.73843336  0.20098418    -0.91300
C584        C  0.34656504  0.65687687  0.23901506     1.17800
H585        H  0.29382700  0.72716506  0.19097127     0.33700
H586        H  0.36757689  0.75358294  0.24756474     0.44600
H587        H  0.30887638  0.67877421  0.27565632     0.38100
H588        H  0.27500209  0.76894070  0.27887086     0.34600
H589        H  0.36527325  0.78030548  0.18171642     0.26300
H590        H  0.32814561  0.80683688  0.30844304     0.32300
H591        H  0.29872634  0.74623987  0.33204117     0.38200
H592        H  0.35409939  0.73226155  0.16064882     0.32700
H593        H  0.29348793  0.68462376  0.17767928     0.31500
H594        H  0.27071111  0.64956056  0.22845521     0.33200
H595        H  0.25689160  0.68478500  0.31242702     0.32200
H596        H  0.38572986  0.72546131  0.21204894     0.36200
H597        H  0.39114550  0.68440481  0.27860075     0.28900
H598        H  0.22976797  0.77933441  0.22350020     0.33100
H599        H  0.23991238  0.72669179  0.31601885     0.36000
H600        H  0.32005576  0.67856154  0.18421731     0.28600
H601        H  0.39669063  0.69906157  0.25540843     0.41500
H602        H  0.36359443  0.80108805  0.24819026     0.31500
H603        H  0.34922073  0.79406589  0.20001057     0.39100
H604        H  0.26620487  0.67432082  0.28828333     0.31000
H605        H  0.30408702  0.79288353  0.31206824     0.31100
H606        H  0.22862400  0.76653219  0.24831144     0.31300
Zr607      Zr  0.35034124  0.25579279  0.26184862     2.17500
O608        O  0.39283771  0.26288141  0.25353189    -0.51000
O609        O  0.35009369  0.27552725  0.30024873    -0.74200
O610        O  0.35756724  0.29570991  0.24842037    -0.81000
O611        O  0.36354677  0.19498497  0.28840744    -0.82800
O612        O  0.32832231  0.30627471  0.22240124    -0.78400
O613        O  0.37927321  0.23150887  0.28189002    -0.90000
O614        O  0.31226990  0.27274204  0.31538087    -0.76000
O615        O  0.31243327  0.27509315  0.26122597    -0.85500
O616        O  0.32515755  0.23292704  0.28726144    -0.85200
O617        O  0.33885349  0.25564750  0.22084451    -0.71900
O618        O  0.34999612  0.21686336  0.24533801    -0.84100
Zr619      Zr  0.27331910  0.21329235  0.22957332     2.26400
Zr620      Zr  0.30003253  0.27399234  0.22057875     2.06300
Zr621      Zr  0.32372973  0.19426749  0.27047380     2.10000
Zr622      Zr  0.28729699  0.25219101  0.28657848     1.78800
O623        O  0.34505140  0.15766227  0.26220693    -0.92900
O624        O  0.26713820  0.28992100  0.29178481    -0.40700
O625        O  0.28519320  0.21313217  0.27047234    -0.77300
O626        O  0.27371591  0.25212992  0.24631615    -0.96000
O627        O  0.29880066  0.23535972  0.20377584    -0.89300
O628        O  0.31125919  0.19389132  0.22993651    -0.92100
C629        C  0.33439352  0.27912232  0.31672268     1.01600
C630        C  0.38035727  0.21041015  0.28989868     1.14500
C631        C  0.34767261  0.31014357  0.23395019     1.05300
O632        O  0.27719832  0.30959494  0.22936475    -0.94300
O633        O  0.26175082  0.27374152  0.20012703    -0.90000
O634        O  0.24514516  0.23797882  0.20805234    -0.83200
C635        C  0.24459702  0.25873722  0.19897023     1.12000
O636        O  0.37842796  0.22403364  0.19256320    -0.96300
Zr637      Zr  0.33701123  0.21653698  0.20494899     1.88900
O638        O  0.27516773  0.19252392  0.19191604    -0.72900
O639        O  0.30963826  0.28610641  0.18005580    -0.52200
O640        O  0.33950059  0.23422665  0.16551113    -0.96900
O641        O  0.36067316  0.18033741  0.20397723    -0.54100
O642        O  0.31389010  0.19193934  0.17859181    -0.73400
C643        C  0.29162663  0.18649798  0.17702622     0.98900
O644        O  0.23169133  0.20167538  0.23671371    -0.62300
O645        O  0.31559425  0.18312619  0.31157317    -0.57100
O646        O  0.26352301  0.17501234  0.24596195    -0.93700
O647        O  0.29487310  0.16181397  0.26774763    -0.92200
O648        O  0.27897611  0.23135326  0.32356610    -0.92500
O649        O  0.24424833  0.24929221  0.29421833    -0.91300
C650        C  0.27407570  0.15908263  0.25826980     1.17800
H651        H  0.33149173  0.23215522  0.30316389     0.33700
H652        H  0.25780232  0.25894679  0.24618773     0.44600
H653        H  0.31000761  0.17788682  0.22426965     0.38100
H654        H  0.35014666  0.26475869  0.21150377     0.34600
H655        H  0.26436699  0.29118643  0.30913872     0.26300
H656        H  0.30241027  0.27383025  0.16990495     0.32300
H657        H  0.34401015  0.25084659  0.16832745     0.38200
H658        H  0.27642361  0.24394664  0.33548261     0.32700
H659        H  0.32393453  0.19499026  0.32135658     0.31500
H660        H  0.34478085  0.14902684  0.27751576     0.33200
H661        H  0.34875613  0.16745745  0.20297290     0.32200
H662        H  0.23873481  0.23663516  0.28348532     0.36200
H663        H  0.22384848  0.21560054  0.24396249     0.28900
H664        H  0.39727129  0.27664495  0.26334903     0.33100
H665        H  0.38118404  0.21402473  0.17839253     0.36000
H666        H  0.29829541  0.18657019  0.31396222     0.28600
H667        H  0.22431621  0.20004779  0.22084757     0.41500
H668        H  0.26500304  0.30461622  0.24125838     0.31500
H669        H  0.27960120  0.30183876  0.28811211     0.39100
H670        H  0.36738210  0.17887799  0.22015428     0.31000
H671        H  0.29964320  0.30029558  0.17735218     0.31100
H672        H  0.39361428  0.26857875  0.23689801     0.31300
C673        C  0.71535107  0.55149152  0.23101289    -0.05200
C674        C  0.72377826  0.56255267  0.21001004     0.09000
C675        C  0.72268874  0.55043136  0.18815459    -0.02500
C676        C  0.71282937  0.52758553  0.18724031    -0.00800
C677        C  0.70399577  0.51675902  0.20812695    -0.04400
C678        C  0.70554176  0.52861108  0.23006645     0.02600
C679        C  0.73443297  0.58672109  0.21112325     0.09400
C680        C  0.73167776  0.56149420  0.16660335     0.35300
C681        C  0.69714139  0.51719551  0.25166144     0.38800
C682        C  0.75750844  0.58984351  0.22083122    -0.04800
C683        C  0.76708520  0.61262952  0.22326284     0.02400
C684        C  0.75377652  0.63245742  0.21578533    -0.04400
C685        C  0.73102225  0.62938896  0.20540434    -0.00600
C686        C  0.72130035  0.60654148  0.20317241    -0.03200
C687        C  0.77126426  0.56957584  0.22866750     0.36100
C688        C  0.71721465  0.64978508  0.19801254     0.39700
C689        C  0.79072388  0.61571572  0.23351415     0.38800
C690        C  0.69752066  0.60346895  0.19332013     0.35800
C691        C  0.71667186  0.56376642  0.25356713     0.36400
C692        C  0.71159591  0.51518632  0.16476634     0.39700
N693        N  0.80954317  0.61824184  0.24171027    -0.38400
N694        N  0.78217933  0.55342871  0.23506027    -0.40000
N695        N  0.70617164  0.66606660  0.19218697    -0.37700
N696        N  0.67854863  0.60106482  0.18542313    -0.40100
N697        N  0.73874216  0.57032907  0.14936443    -0.39900
N698        N  0.71062865  0.50516432  0.14690893    -0.37500
N699        N  0.69056971  0.50806874  0.26893399    -0.38600
N700        N  0.71788808  0.57358617  0.27152620    -0.40200
C701        C  0.47715100  0.74382541  0.35578136    -0.05200
C702        C  0.46875069  0.76510061  0.34578698     0.09000
C703        C  0.48247674  0.78585328  0.34789130    -0.02500
C704        C  0.50480455  0.78522454  0.35950384    -0.00800
C705        C  0.51364942  0.76372516  0.36848462    -0.04400
C706        C  0.49970717  0.74310056  0.36691631     0.02600
C707        C  0.44598318  0.76533378  0.33197853     0.09400
C708        C  0.47370601  0.80771191  0.33777928     0.35300
C709        C  0.50867126  0.72117408  0.37678199     0.38800
C710        C  0.42382368  0.77009081  0.34336988    -0.04800
C711        C  0.40224974  0.76901084  0.33041787     0.02400
C712        C  0.40279709  0.76269747  0.30616415    -0.04400
C713        C  0.42512220  0.75899523  0.29455969    -0.00600
C714        C  0.44666264  0.76037310  0.30744187    -0.03200
C715        C  0.42327877  0.77541717  0.36855719     0.36100
C716        C  0.42591605  0.75384950  0.26930861     0.39700
C717        C  0.37943081  0.77343944  0.34223825     0.38800
C718        C  0.46958531  0.75627283  0.29563258     0.35800
C719        C  0.46259497  0.72270428  0.35453195     0.36400
C720        C  0.51873024  0.80661902  0.36218023     0.39700
N721        N  0.36118437  0.77703959  0.35158577    -0.38400
N722        N  0.42297783  0.77959683  0.38868018    -0.40000
N723        N  0.42659518  0.74985765  0.24914870    -0.37700
N724        N  0.48795723  0.75305700  0.28637755    -0.40100
N725        N  0.46663645  0.82509714  0.32963164    -0.39900
N726        N  0.52980317  0.82369001  0.36448915    -0.37500
N727        N  0.51597493  0.70378157  0.38471562    -0.38600
N728        N  0.45095268  0.70585657  0.35369507    -0.40200
C729        C  0.63803303  0.72602195  0.35664166    -0.05200
C730        C  0.64251198  0.73777324  0.33499365     0.09000
C731        C  0.62551735  0.75383348  0.32597814    -0.02500
C732        C  0.60458977  0.75909570  0.33916746    -0.00800
C733        C  0.60022356  0.74772631  0.36116797    -0.04400
C734        C  0.61672544  0.73066805  0.36952835     0.02600
C735        C  0.66543844  0.73381058  0.32175363     0.09400
C736        C  0.62973100  0.76504958  0.30312692     0.35300
C737        C  0.61144255  0.71730371  0.39094949     0.38800
C738        C  0.66667774  0.71669245  0.30366594    -0.04800
C739        C  0.68762273  0.71456835  0.28956872     0.02400
C740        C  0.70732170  0.72968093  0.29352249    -0.04400
C741        C  0.70631145  0.74628323  0.31221478    -0.00600
C742        C  0.68541778  0.74827883  0.32633492    -0.03200
C743        C  0.64614747  0.70164706  0.29933267     0.36100
C744        C  0.72687045  0.76115104  0.31715101     0.39700
C745        C  0.68847861  0.69756243  0.27036268     0.38800
C746        C  0.68431617  0.76539980  0.34544500     0.35800
C747        C  0.65544400  0.70924795  0.36563521     0.36400
C748        C  0.58810452  0.77691492  0.33047070     0.39700
N749        N  0.68912962  0.68403542  0.25500139    -0.38400
N750        N  0.62969212  0.68970818  0.29596703    -0.40000
N751        N  0.74320385  0.77306650  0.32111066    -0.37700
N752        N  0.68346358  0.77901971  0.36071418    -0.40100
N753        N  0.63306731  0.77382787  0.28481927    -0.39900
N754        N  0.57491507  0.79111936  0.32360831    -0.37500
N755        N  0.60711344  0.70653158  0.40793309    -0.38600
N756        N  0.66937581  0.69591042  0.37281086    -0.40200
C757        C  0.72351570  0.34155018  0.22106628    -0.05200
C758        C  0.73647330  0.36005068  0.21016771     0.09000
C759        C  0.76002330  0.35591798  0.20162791    -0.02500
C760        C  0.77099710  0.33371286  0.20493985    -0.00800
C761        C  0.75827302  0.31531236  0.21637973    -0.04400
C762        C  0.73427764  0.31918802  0.22395209     0.02600
C763        C  0.72555124  0.38412579  0.20826253     0.09400
C764        C  0.77319473  0.37480476  0.19004289     0.35300
C765        C  0.72066900  0.30014493  0.23479084     0.38800
C766        C  0.72823708  0.40050852  0.22691100    -0.04800
C767        C  0.71793219  0.42319652  0.22518189     0.02400
C768        C  0.70465171  0.42955807  0.20485090    -0.04400
C769        C  0.70183766  0.41304219  0.18627583    -0.00600
C770        C  0.71234952  0.39046693  0.18795184    -0.03200
C771        C  0.74106128  0.39372677  0.24818727     0.36100
C772        C  0.68813206  0.41928318  0.16535480     0.39700
C773        C  0.71993172  0.43951567  0.24488772     0.38800
C774        C  0.70928936  0.37355179  0.16893976     0.35800
C775        C  0.69932374  0.34578458  0.22989978     0.36400
C776        C  0.79594123  0.33035680  0.19803410     0.39700
N777        N  0.72144302  0.45251763  0.26062595    -0.38400
N778        N  0.75115632  0.38826848  0.26523195    -0.40000
N779        N  0.67708613  0.42429056  0.14875551    -0.37700
N780        N  0.70682019  0.36001615  0.15380433    -0.40100
N781        N  0.78366891  0.38988501  0.18077517    -0.39900
N782        N  0.81591361  0.32781078  0.19271269    -0.37500
N783        N  0.70978010  0.28493920  0.24335886    -0.38600
N784        N  0.68007707  0.34925717  0.23705338    -0.40200
C785        C  0.64172490  0.21129478  0.34428412    -0.05200
C786        C  0.64614291  0.23305749  0.33301516     0.09000
C787        C  0.62889890  0.25121204  0.33411287    -0.02500
C788        C  0.60704069  0.24754173  0.34635891    -0.00800
C789        C  0.60259184  0.22576675  0.35772742    -0.04400
C790        C  0.61976069  0.20746822  0.35621951     0.02600
C791        C  0.66874751  0.23641531  0.31918026     0.09400
C792        C  0.63393078  0.27369722  0.32285821     0.35300
C793        C  0.61430451  0.18428594  0.36567013     0.38800
C794        C  0.66999509  0.22891908  0.29537430    -0.04800
C795        C  0.69198785  0.22981536  0.28287894     0.02400
C796        C  0.71282816  0.23855102  0.29413962    -0.04400
C797        C  0.71104302  0.24741295  0.31764196    -0.00600
C798        C  0.68909956  0.24598990  0.33019741    -0.03200
C799        C  0.64865188  0.21974001  0.28399793     0.36100
C800        C  0.73189620  0.25700963  0.32949661     0.39700
C801        C  0.69292922  0.22173374  0.25843888     0.38800
C802        C  0.68757982  0.25346308  0.35482051     0.35800
C803        C  0.65996612  0.19298213  0.34368092     0.36400
C804        C  0.58916528  0.26613912  0.34719210     0.39700
N805        N  0.69318946  0.21516410  0.23898080    -0.38400
N806        N  0.63156901  0.21244895  0.27503884    -0.40000
N807        N  0.74833621  0.26490722  0.33906758    -0.37700
N808        N  0.68626675  0.25925419  0.37449979    -0.40100
N809        N  0.63824150  0.29160067  0.31393940    -0.39900
N810        N  0.57494466  0.28103413  0.34765437    -0.37500
N811        N  0.60998432  0.16560686  0.37277084    -0.38600
N812        N  0.67473264  0.17859851  0.34324431    -0.40200
C813        C  0.48527670  0.18705077  0.34250838    -0.05200
C814        C  0.47161912  0.20695250  0.33607444     0.09000
C815        C  0.48010167  0.22978994  0.34117932    -0.02500
C816        C  0.50219719  0.23270448  0.35282006    -0.00800
C817        C  0.51558466  0.21276705  0.35975865    -0.04400
C818        C  0.50711950  0.18994241  0.35461326     0.02600
C819        C  0.44808130  0.20399062  0.32405149     0.09400
C820        C  0.46599509  0.25023151  0.33445896     0.35300
C821        C  0.52100405  0.16947548  0.36164565     0.38800
C822        C  0.42675356  0.20251863  0.33771201    -0.04800
C823        C  0.40427220  0.20208113  0.32637773     0.02400
C824        C  0.40315044  0.20397427  0.30140621    -0.04400
C825        C  0.42455691  0.20424184  0.28772651    -0.00600
C826        C  0.44700996  0.20408518  0.29904297    -0.03200
C827        C  0.42798851  0.20297503  0.36344692     0.36100
C828        C  0.42335572  0.20545752  0.26199029     0.39700
C829        C  0.38234885  0.20153774  0.34050600     0.38800
C830        C  0.46902425  0.20512321  0.28507914     0.35800
C831        C  0.47689237  0.16368071  0.33639977     0.36400
C832        C  0.51106534  0.25618387  0.35779247     0.39700
N833        N  0.36497780  0.20117038  0.35196425    -0.38400
N834        N  0.42909905  0.20358457  0.38396432    -0.40000
N835        N  0.42220463  0.20646254  0.24148562    -0.37700
N836        N  0.48665546  0.20599176  0.27404678    -0.40100
N837        N  0.45467151  0.26647819  0.32908035    -0.39900
N838        N  0.51806430  0.27496232  0.36167009    -0.37500
N839        N  0.53211115  0.15318407  0.36731197    -0.38600
N840        N  0.47017073  0.14509232  0.33132260    -0.40200
C841        C  0.77932652  0.63252847  0.56908476    -0.05200
C842        C  0.80199051  0.63700774  0.57916937     0.09000
C843        C  0.82305784  0.62840493  0.56799728    -0.02500
C844        C  0.82149233  0.61600614  0.54640658    -0.00800
C845        C  0.79884062  0.61158610  0.53634861    -0.04400
C846        C  0.77772979  0.61951464  0.54787874     0.02600
C847        C  0.80358416  0.65056724  0.60178511     0.09400
C848        C  0.84629513  0.63232615  0.57875526     0.35300
C849        C  0.75438752  0.61445142  0.53782646     0.38800
C850        C  0.79792177  0.63950406  0.62357868    -0.04800
C851        C  0.79946560  0.65215972  0.64500518     0.02400
C852        C  0.80673312  0.67600585  0.64474478    -0.04400
C853        C  0.81210246  0.68716987  0.62282197    -0.00600
C854        C  0.81052639  0.67445400  0.60140589    -0.03200
C855        C  0.79090026  0.61490855  0.62393339     0.36100
C856        C  0.81880807  0.71186210  0.62214424     0.39700
C857        C  0.79463251  0.64028169  0.66741048     0.38800
C858        C  0.81605024  0.68592747  0.57894302     0.35800
C859        C  0.75772237  0.64168451  0.58039221     0.36400
C860        C  0.84316033  0.60808612  0.53428449     0.39700
N861        N  0.79082696  0.63092806  0.68534248    -0.38400
N862        N  0.78524451  0.59530242  0.62416307    -0.40000
N863        N  0.82411722  0.73155297  0.62134087    -0.37700
N864        N  0.82053585  0.69510877  0.56106932    -0.40100
N865        N  0.86482275  0.63542103  0.58738753    -0.39900
N866        N  0.86037455  0.60179392  0.52447849    -0.37500
N867        N  0.73570301  0.61034107  0.52998186    -0.38600
N868        N  0.74056499  0.64906082  0.58949159    -0.40200
C869        C  0.78876721  0.66065176  0.43228628    -0.05200
C870        C  0.79951763  0.65334609  0.41082238     0.09000
C871        C  0.80936820  0.63052587  0.40886339    -0.02500
C872        C  0.80854666  0.61496433  0.42841253    -0.00800
C873        C  0.79757052  0.62210087  0.45011205    -0.04400
C874        C  0.78765060  0.64517362  0.45182273     0.02600
C875        C  0.79923455  0.66926180  0.38973739     0.09400
C876        C  0.82005066  0.62295676  0.38650097     0.35300
C877        C  0.77558446  0.65312767  0.47335827     0.38800
C878        C  0.82028709  0.68109772  0.38244265    -0.04800
C879        C  0.82067801  0.69371621  0.36083437     0.02400
C880        C  0.79950655  0.69551712  0.34708153    -0.04400
C881        C  0.77781042  0.68574536  0.35596266    -0.00600
C882        C  0.77787580  0.67204956  0.37677986    -0.03200
C883        C  0.84159140  0.68002089  0.39711580     0.36100
C884        C  0.75526253  0.68987643  0.34381418     0.39700
C885        C  0.84326861  0.70348711  0.35241115     0.38800
C886        C  0.75603742  0.66033371  0.38462907     0.35800
C887        C  0.77835738  0.68407675  0.43403782     0.36400
C888        C  0.81958254  0.59188068  0.42610326     0.39700
N889        N  0.86159209  0.71096654  0.34613011    -0.38400
N890        N  0.85851873  0.67933638  0.40890769    -0.40000
N891        N  0.73724755  0.69321049  0.33423735    -0.37700
N892        N  0.73865341  0.65097893  0.39094676    -0.40100
N893        N  0.82855410  0.61693804  0.36866760    -0.39900
N894        N  0.82834344  0.57346505  0.42414873    -0.37500
N895        N  0.76609033  0.65968298  0.49050650    -0.38600
N896        N  0.76988481  0.70267067  0.43531416    -0.40200
C897        C  0.58823877  0.76522394  0.52674564    -0.05200
C898        C  0.57404516  0.78095498  0.51345831     0.09000
C899        C  0.56077154  0.79878108  0.52504473    -0.02500
C900        C  0.56055342  0.80003631  0.55002523    -0.00800
C901        C  0.57384876  0.78359713  0.56348842    -0.04400
C902        C  0.58830414  0.76660940  0.55173130     0.02600
C903        C  0.57122421  0.77727541  0.48745507     0.09400
C904        C  0.54687265  0.81545540  0.51122493     0.35300
C905        C  0.60231029  0.74975413  0.56524437     0.38800
C906        C  0.55437518  0.76064298  0.47938853    -0.04800
C907        C  0.55124907  0.75711169  0.45488955     0.02400
C908        C  0.56529903  0.76993861  0.43834233    -0.04400
C909        C  0.58249409  0.78630396  0.44645492    -0.00600
C910        C  0.58529185  0.79010287  0.47101323    -0.03200
C911        C  0.54057048  0.74684773  0.49641110     0.36100
C912        C  0.59703789  0.79949342  0.42955286     0.39700
C913        C  0.53417993  0.73962630  0.44678811     0.38800
C914        C  0.60269805  0.80707072  0.47943201     0.35800
C915        C  0.60203630  0.74705995  0.51463182     0.36400
C916        C  0.54668630  0.81830945  0.56187236     0.39700
N917        N  0.52055917  0.72569097  0.44034715    -0.38400
N918        N  0.52975122  0.73574570  0.51004071    -0.40000
N919        N  0.60867706  0.80990213  0.41601758    -0.37700
N920        N  0.61656966  0.82062903  0.48615349    -0.40100
N921        N  0.53584528  0.82880869  0.50020239    -0.39900
N922        N  0.53560324  0.83280383  0.57141767    -0.37500
N923        N  0.61354712  0.73631384  0.57595680    -0.38600
N924        N  0.61289937  0.73254133  0.50487834    -0.40200
C925        C  0.63836646  0.75901424  0.66824165    -0.05200
C926        C  0.65787181  0.77388267  0.66251633     0.09000
C927        C  0.65445766  0.79322365  0.64717380    -0.02500
C928        C  0.63184022  0.79713995  0.63680072    -0.00800
C929        C  0.61267389  0.78137030  0.64128571    -0.04400
C930        C  0.61587418  0.76254606  0.65744839     0.02600
C931        C  0.68227604  0.76856273  0.67199186     0.09400
C932        C  0.67439846  0.80879693  0.64171654     0.35300
C933        C  0.59653689  0.74595486  0.66193530     0.38800
C934        C  0.69794292  0.75355713  0.65921338    -0.04800
C935        C  0.72069564  0.74779528  0.66848567     0.02400
C936        C  0.72783213  0.75697566  0.69067482    -0.04400
C937        C  0.71194723  0.77183016  0.70351644    -0.00600
C938        C  0.68941733  0.77792156  0.69398065    -0.03200
C939        C  0.69049377  0.74406022  0.63651957     0.36100
C940        C  0.71803520  0.77962268  0.72723332     0.39700
C941        C  0.73679364  0.73253750  0.65511679     0.38800
C942        C  0.67340302  0.79370962  0.70679208     0.35800
C943        C  0.64167057  0.73974026  0.68485938     0.36400
C944        C  0.62824420  0.81753393  0.62164646     0.39700
N945        N  0.74960651  0.72034191  0.64444732    -0.38400
N946        N  0.68436166  0.73660449  0.61843142    -0.40000
N947        N  0.72253104  0.78562756  0.74632137    -0.37700
N948        N  0.66056251  0.80639815  0.71681146    -0.40100
N949        N  0.69032196  0.82119359  0.63731507    -0.39900
N950        N  0.62533998  0.83385741  0.60965182    -0.37500
N951        N  0.58111728  0.73269760  0.66542476    -0.38600
N952        N  0.64430267  0.72443353  0.69819971    -0.40200
C953        C  0.72424191  0.55305253  0.74943338    -0.05200
C954        C  0.73616913  0.56333076  0.76886494     0.09000
C955        C  0.73415573  0.55305795  0.79164723    -0.02500
C956        C  0.71993206  0.53280995  0.79507282    -0.00800
C957        C  0.70782533  0.52270250  0.77572002    -0.04400
C958        C  0.71015114  0.53268541  0.75283510     0.02600
C959        C  0.74985016  0.58571466  0.76552006     0.09400
C960        C  0.74654404  0.56348484  0.81158285     0.35300
C961        C  0.69814424  0.52195528  0.73280637     0.38800
C962        C  0.73826163  0.60748232  0.76946742    -0.04800
C963        C  0.75085271  0.62873507  0.76589903     0.02400
C964        C  0.77503258  0.62831793  0.75786541    -0.04400
C965        C  0.78654121  0.60646600  0.75377959    -0.00600
C966        C  0.77406015  0.58521945  0.75789439    -0.03200
C967        C  0.71322448  0.60789349  0.77692490     0.36100
C968        C  0.81079073  0.60585812  0.74411347     0.39700
C969        C  0.73898566  0.65099466  0.77089842     0.38800
C970        C  0.78600376  0.56281027  0.75404327     0.35800
C971        C  0.72628947  0.56367006  0.72603515     0.36400
C972        C  0.71733545  0.52255712  0.81858747     0.39700
N973        N  0.72949038  0.66872182  0.77492282    -0.38400
N974        N  0.69323169  0.60802698  0.78278126    -0.40000
N975        N  0.83005000  0.60550181  0.73618327    -0.37700
N976        N  0.79556679  0.54493186  0.75101210    -0.40100
N977        N  0.75641947  0.57176626  0.82752864    -0.39900
N978        N  0.71508831  0.51433121  0.83730444    -0.37500
N979        N  0.68865433  0.51341008  0.71676497    -0.38600
N980        N  0.72797375  0.57222213  0.70741041    -0.40200
C981        C  0.49337706  0.79721110  0.66283619    -0.05200
C982        C  0.47896216  0.77707139  0.65934425     0.09000
C983        C  0.48700740  0.75912036  0.64384306    -0.02500
C984        C  0.50943713  0.76114588  0.63213513    -0.00800
C985        C  0.52411902  0.78100184  0.63611094    -0.04400
C986        C  0.51591021  0.79916061  0.65125665     0.02600
C987        C  0.45556787  0.77436722  0.67248188     0.09400
C988        C  0.47232260  0.73836319  0.64027146     0.35300
C989        C  0.53039139  0.82014996  0.65431569     0.38800
C990        C  0.43362474  0.77974790  0.66124084    -0.04800
C991        C  0.41155775  0.77593262  0.67325667     0.02400
C992        C  0.41133340  0.76634148  0.69642850    -0.04400
C993        C  0.43331583  0.76197461  0.70803275    -0.00600
C994        C  0.45533714  0.76556634  0.69595762    -0.03200
C995        C  0.43376273  0.78803988  0.63685645     0.36100
C996        C  0.43318700  0.75398610  0.73254739     0.39700
C997        C  0.38907557  0.78096361  0.66141698     0.38800
C998        C  0.47774394  0.75895313  0.70715643     0.35800
C999        C  0.48496724  0.81592958  0.67832241     0.36400
C1000       C  0.51769593  0.74250236  0.61643137     0.39700
N1001       N  0.37112780  0.78506100  0.65201396    -0.38400
N1002       N  0.43387090  0.79437924  0.61729845    -0.40000
N1003       N  0.43292606  0.74786020  0.75217755    -0.37700
N1004       N  0.49564416  0.75341412  0.71589084    -0.40100
N1005       N  0.46059211  0.72180620  0.63743959    -0.39900
N1006       N  0.52435856  0.72772289  0.60383789    -0.37500
N1007       N  0.54202414  0.83687303  0.65652825    -0.38600
N1008       N  0.47827804  0.83089738  0.69066870    -0.40200
C1009       C  0.35516487  0.61448426  0.40962766    -0.05200
C1010       C  0.34278933  0.63614610  0.40939075     0.09000
C1011       C  0.33297449  0.64513091  0.43068573    -0.02500
C1012       C  0.33510331  0.63234640  0.45211876    -0.00800
C1013       C  0.34823470  0.61084534  0.45274824    -0.04400
C1014       C  0.35835640  0.60210096  0.43118340     0.02600
C1015       C  0.33912523  0.64907140  0.38645238     0.09400
C1016       C  0.32039089  0.66754345  0.43042586     0.35300
C1017       C  0.37258171  0.58064884  0.43091631     0.38800
C1018       C  0.31915769  0.64371411  0.37221199    -0.04800
C1019       C  0.31523173  0.65613548  0.35085874     0.02400
C1020       C  0.33100849  0.67443299  0.34376478    -0.04400
C1021       C  0.35148482  0.67926556  0.35772536    -0.00600
C1022       C  0.35549004  0.66660198  0.37898334    -0.03200
C1023       C  0.30265115  0.62527920  0.37957705     0.36100
C1024       C  0.36824551  0.69755825  0.35054961     0.39700
C1025       C  0.29558915  0.64913333  0.33566298     0.38800
C1026       C  0.37639808  0.67165055  0.39330530     0.35800
C1027       C  0.36440427  0.60484667  0.38747942     0.36400
C1028       C  0.32265233  0.64097843  0.47315343     0.39700
N1029       N  0.28002459  0.64303217  0.32365460    -0.38400
N1030       N  0.28950625  0.61056197  0.38545563    -0.40000
N1031       N  0.38172595  0.71204123  0.34481227    -0.37700
N1032       N  0.39309564  0.67564865  0.40472596    -0.40100
N1033       N  0.31046426  0.68547462  0.43022693    -0.39900
N1034       N  0.31259879  0.64784415  0.48986414    -0.37500
N1035       N  0.38392202  0.56353488  0.43052512    -0.38600
N1036       N  0.37155861  0.59715438  0.36973817    -0.40200
C1037       C  0.34224745  0.61607224  0.58171884    -0.05200
C1038       C  0.35533540  0.63720974  0.58356288     0.09000
C1039       C  0.36923139  0.64516368  0.56408283    -0.02500
C1040       C  0.36968561  0.63227941  0.54262630    -0.00800
C1041       C  0.35630816  0.61115331  0.54054999    -0.04400
C1042       C  0.34282262  0.60299580  0.56043443     0.02600
C1043       C  0.35288092  0.65194613  0.60550095     0.09400
C1044       C  0.38268843  0.66692491  0.56608084     0.35300
C1045       C  0.32854465  0.58169230  0.55891216     0.38800
C1046       C  0.36572315  0.64621838  0.62620000    -0.04800
C1047       C  0.36145315  0.65872600  0.64752907     0.02400
C1048       C  0.34451797  0.67751451  0.64816971    -0.04400
C1049       C  0.33277086  0.68398505  0.62681615    -0.00600
C1050       C  0.33671659  0.67105078  0.60576805    -0.03200
C1051       C  0.38326740  0.62728530  0.62549476     0.36100
C1052       C  0.31702053  0.70434775  0.62602276     0.39700
C1053       C  0.37400747  0.65150714  0.66884990     0.38800
C1054       C  0.32391114  0.67720916  0.58425189     0.35800
C1055       C  0.32737735  0.60825577  0.60153587     0.36400
C1056       C  0.38420214  0.64074322  0.52285342     0.39700
N1057       N  0.38417238  0.64568608  0.68573826    -0.38400
N1058       N  0.39734070  0.61225547  0.62488268    -0.40000
N1059       N  0.30447545  0.72058291  0.62494904    -0.37700
N1060       N  0.31383681  0.68202212  0.56700106    -0.40100
N1061       N  0.39329013  0.68435532  0.56776654    -0.39900
N1062       N  0.39572142  0.64758302  0.50707208    -0.37500
N1063       N  0.31716579  0.56468061  0.55796485    -0.38600
N1064       N  0.31544211  0.60207943  0.61729302    -0.40200
C1065       C  0.75790138  0.37074714  0.75605456    -0.05200
C1066       C  0.73876431  0.37158545  0.77268909     0.09000
C1067       C  0.73191859  0.35113117  0.78525083    -0.02500
C1068       C  0.74358833  0.32965613  0.78052727    -0.00800
C1069       C  0.76265812  0.32883659  0.76387545    -0.04400
C1070       C  0.77018765  0.34942472  0.75200504     0.02600
C1071       C  0.72519523  0.39387894  0.77631967     0.09400
C1072       C  0.71276111  0.35218361  0.80287667     0.35300
C1073       C  0.79034364  0.34854080  0.73548959     0.38800
C1074       C  0.70708181  0.40028173  0.76017006    -0.04800
C1075       C  0.69446889  0.42156116  0.76324833     0.02400
C1076       C  0.70074702  0.43697201  0.78185022    -0.04400
C1077       C  0.71847296  0.43028505  0.79834429    -0.00600
C1078       C  0.73046231  0.40856898  0.79575934    -0.03200
C1079       C  0.70189733  0.38519458  0.74006256     0.36100
C1080       C  0.72401123  0.44551984  0.81821851     0.39700
C1081       C  0.67538727  0.42780453  0.74697413     0.38800
C1082       C  0.74830010  0.40132152  0.81295595     0.35800
C1083       C  0.76454917  0.39171458  0.74279904     0.36400
C1084       C  0.73588648  0.30833084  0.79265462     0.39700
N1085       N  0.66000206  0.43271316  0.73416304    -0.38400
N1086       N  0.69801718  0.37323365  0.72391259    -0.40000
N1087       N  0.72841884  0.45760218  0.83413512    -0.37700
N1088       N  0.76241508  0.39536989  0.82671685    -0.40100
N1089       N  0.69761215  0.35303109  0.81707764    -0.39900
N1090       N  0.72968955  0.29129747  0.80221851    -0.37500
N1091       N  0.80646974  0.34777819  0.72237562    -0.38600
N1092       N  0.76965966  0.40841163  0.73207653    -0.40200
C1093       C  0.57246234  0.21700045  0.52642306    -0.05200
C1094       C  0.56042404  0.20205371  0.51051504     0.09000
C1095       C  0.54884673  0.18159924  0.51901065    -0.02500
C1096       C  0.54925710  0.17608712  0.54341455    -0.00800
C1097       C  0.56121015  0.19108964  0.55946141    -0.04400
C1098       C  0.57300366  0.21148370  0.55084077     0.02600
C1099       C  0.56101812  0.20706550  0.48449819     0.09400
C1100       C  0.53658192  0.16621815  0.50251545     0.35300
C1101       C  0.58519386  0.22717953  0.56706910     0.38800
C1102       C  0.58039887  0.19878815  0.47063800    -0.04800
C1103       C  0.58042813  0.20186375  0.44579437     0.02400
C1104       C  0.56094476  0.21344129  0.43451573    -0.04400
C1105       C  0.54179429  0.22237077  0.44878941    -0.00600
C1106       C  0.54190547  0.21914148  0.47366069    -0.03200
C1107       C  0.60019229  0.18664671  0.48207288     0.36100
C1108       C  0.52202659  0.23522647  0.43815859     0.39700
C1109       C  0.60028329  0.19210775  0.43216137     0.38800
C1110       C  0.52231604  0.22816209  0.48823618     0.35800
C1111       C  0.58404854  0.23819331  0.51759810     0.36400
C1112       C  0.53801682  0.15456559  0.55187666     0.39700
N1113       N  0.61653412  0.18415598  0.42200914    -0.38400
N1114       N  0.61593124  0.17700718  0.49126637    -0.40000
N1115       N  0.50614894  0.24537411  0.42976325    -0.37700
N1116       N  0.50675252  0.23534733  0.49994132    -0.40100
N1117       N  0.52678425  0.15405888  0.48926973    -0.39900
N1118       N  0.52913170  0.13734671  0.55858636    -0.37500
N1119       N  0.59506061  0.23975430  0.57985912    -0.38600
N1120       N  0.59320340  0.25512700  0.51051257    -0.40200
C1121       C  0.63593297  0.16606098  0.65500834    -0.05200
C1122       C  0.64394989  0.18857588  0.66204029     0.09000
C1123       C  0.62967910  0.20861080  0.65738786    -0.02500
C1124       C  0.60813231  0.20633438  0.64470663    -0.00800
C1125       C  0.60054363  0.18396856  0.63696321    -0.04400
C1126       C  0.61411411  0.16375049  0.64260761     0.02600
C1127       C  0.66815647  0.19168737  0.67288596     0.09400
C1128       C  0.63745101  0.23163874  0.66536659     0.35300
C1129       C  0.60572833  0.14068471  0.63540508     0.38800
C1130       C  0.68735107  0.20022683  0.65872896    -0.04800
C1131       C  0.70961346  0.20554243  0.66915685     0.02400
C1132       C  0.71308534  0.20144878  0.69359849    -0.04400
C1133       C  0.69410097  0.19241926  0.70770129    -0.00600
C1134       C  0.67152780  0.18789997  0.69742944    -0.03200
C1135       C  0.68391824  0.20404289  0.63348338     0.36100
C1136       C  0.69759945  0.18861692  0.73294302     0.39700
C1137       C  0.72877065  0.21582173  0.65490362     0.38800
C1138       C  0.65150421  0.18033123  0.71222574     0.35800
C1139       C  0.65041559  0.14541825  0.66001996     0.36400
C1140       C  0.59387931  0.22706461  0.63929969     0.39700
N1141       N  0.74400444  0.22423171  0.64363080    -0.38400
N1142       N  0.68102106  0.20707605  0.61336808    -0.40000
N1143       N  0.70046595  0.18563809  0.75307404    -0.37700
N1144       N  0.63548337  0.17447247  0.72407556    -0.40100
N1145       N  0.64374185  0.24996464  0.67176594    -0.39900
N1146       N  0.58246012  0.24354876  0.63494162    -0.37500
N1147       N  0.59895742  0.12228901  0.62971192    -0.38600
N1148       N  0.66194970  0.12891545  0.66400651    -0.40200
C1149       C  0.80523521  0.50247589  0.49712939    -0.05200
C1150       C  0.78707769  0.49226310  0.48319240     0.09000
C1151       C  0.77193259  0.50679732  0.46951513    -0.02500
C1152       C  0.77440363  0.53154187  0.47040457    -0.00800
C1153       C  0.79210792  0.54183572  0.48500173    -0.04400
C1154       C  0.80803164  0.52710814  0.49770200     0.02600
C1155       C  0.78420752  0.46607789  0.48308457     0.09400
C1156       C  0.75363742  0.49624954  0.45475772     0.35300
C1157       C  0.82798195  0.53719742  0.51063029     0.38800
C1158       C  0.76702396  0.45534489  0.49809492    -0.04800
C1159       C  0.76689636  0.43067485  0.50101863     0.02400
C1160       C  0.78323442  0.41637651  0.48797299    -0.04400
C1161       C  0.79933934  0.42719866  0.47161081    -0.00600
C1162       C  0.80014118  0.45197869  0.46963265    -0.03200
C1163       C  0.74968975  0.46977897  0.51087123     0.36100
C1164       C  0.81595928  0.41312070  0.45755959     0.39700
C1165       C  0.75000390  0.42015669  0.51772037     0.38800
C1166       C  0.81799510  0.46317117  0.45443713     0.35800
C1167       C  0.82093739  0.48755204  0.51111295     0.36400
C1168       C  0.75831859  0.54631437  0.45672716     0.39700
N1169       N  0.73679306  0.41178212  0.53129492    -0.38400
N1170       N  0.73565922  0.48119901  0.52089441    -0.40000
N1171       N  0.82917440  0.40202746  0.44615955    -0.37700
N1172       N  0.83232462  0.47229641  0.44258768    -0.40100
N1173       N  0.73899101  0.48787007  0.44300869    -0.39900
N1174       N  0.74553846  0.55806583  0.44571050    -0.37500
N1175       N  0.84402125  0.54519065  0.52077348    -0.38600
N1176       N  0.83342315  0.47562825  0.52226731    -0.40200
C1177       C  0.81666829  0.30222160  0.37755760    -0.05200
C1178       C  0.80381668  0.29150391  0.39637901     0.09000
C1179       C  0.79505808  0.26835319  0.39388593    -0.02500
C1180       C  0.79825474  0.25627827  0.37221824    -0.00800
C1181       C  0.81016067  0.26742356  0.35302686    -0.04400
C1182       C  0.81975634  0.29024668  0.35587767     0.02600
C1183       C  0.79838276  0.30530691  0.41827830     0.09400
C1184       C  0.78220366  0.25726593  0.41342367     0.35300
C1185       C  0.83274834  0.30144413  0.33643817     0.38800
C1186       C  0.77821980  0.32040112  0.41884262    -0.04800
C1187       C  0.77426620  0.33530003  0.43848497     0.02400
C1188       C  0.79036892  0.33499317  0.45774058    -0.04400
C1189       C  0.81005160  0.31917598  0.45753280    -0.00600
C1190       C  0.81399730  0.30432688  0.43782834    -0.03200
C1191       C  0.76160648  0.32057157  0.39910627     0.36100
C1192       C  0.82690683  0.31891894  0.47706324     0.39700
C1193       C  0.75344734  0.35072191  0.43903446     0.38800
C1194       C  0.83429241  0.28825016  0.43745806     0.35800
C1195       C  0.82634968  0.32575844  0.38041895     0.36400
C1196       C  0.78806777  0.23297916  0.36926210     0.39700
N1197       N  0.73687409  0.36306549  0.43956658    -0.38400
N1198       N  0.74836314  0.32056861  0.38336097    -0.40000
N1199       N  0.84037537  0.31875705  0.49262078    -0.37700
N1200       N  0.85042849  0.27535614  0.43720396    -0.40100
N1201       N  0.77196693  0.24840059  0.42902567    -0.39900
N1202       N  0.77972922  0.21446885  0.36698271    -0.37500
N1203       N  0.84310466  0.31036412  0.32094076    -0.38600
N1204       N  0.83410360  0.34451565  0.38270193    -0.40200
C1205       C  0.77335851  0.32276513  0.63328299    -0.05200
C1206       C  0.78484212  0.31532849  0.61213873     0.09000
C1207       C  0.79797169  0.29411424  0.61190374    -0.02500
C1208       C  0.79927105  0.28011121  0.63250906    -0.00800
C1209       C  0.78927061  0.28815477  0.65427314    -0.04400
C1210       C  0.77601463  0.30955333  0.65446286     0.02600
C1211       C  0.78249681  0.32900319  0.58952879     0.09400
C1212       C  0.81003695  0.28657947  0.59021462     0.35300
C1213       C  0.76524120  0.31818599  0.67635374     0.38800
C1214       C  0.80050744  0.34522663  0.58276735    -0.04800
C1215       C  0.80051435  0.35516961  0.55977814     0.02400
C1216       C  0.78232441  0.34914848  0.54354688    -0.04400
C1217       C  0.76387579  0.33348959  0.55057199    -0.00600
C1218       C  0.76405083  0.32334391  0.57346296    -0.03200
C1219       C  0.81967711  0.35078786  0.59910700     0.36100
C1220       C  0.74482158  0.32765472  0.53416443     0.39700
C1221       C  0.82015861  0.37030213  0.55223901     0.38800
C1222       C  0.74588124  0.30623259  0.58018503     0.35800
C1223       C  0.75863412  0.34386797  0.63310116     0.36400
C1224       C  0.80915191  0.25655135  0.63054169     0.39700
N1225       N  0.83585924  0.38221455  0.54599849    -0.38400
N1226       N  0.83503670  0.35519754  0.61209039    -0.40000
N1227       N  0.72964999  0.32300540  0.52104559    -0.37700
N1228       N  0.73151199  0.29245662  0.58555901    -0.40100
N1229       N  0.81977956  0.28073816  0.57294415    -0.39900
N1230       N  0.81650476  0.23761823  0.62819908    -0.37500
N1231       N  0.75650294  0.32503978  0.69376550    -0.38600
N1232       N  0.74669033  0.36058008  0.63287000    -0.40200
C1233       C  0.44488570  0.18755492  0.69302531    -0.05200
C1234       C  0.44445773  0.18268483  0.66844206     0.09000
C1235       C  0.42226387  0.18060897  0.65663805    -0.02500
C1236       C  0.40060378  0.18455186  0.66916409    -0.00800
C1237       C  0.40112581  0.18962729  0.69367531    -0.04400
C1238       C  0.42323309  0.19050708  0.70570724     0.02600
C1239       C  0.46749931  0.18152478  0.65478915     0.09400
C1240       C  0.42181531  0.17539119  0.63142067     0.35300
C1241       C  0.42366508  0.19496367  0.73110917     0.38800
C1242       C  0.48294336  0.16195920  0.65733893    -0.04800
C1243       C  0.50568849  0.16192959  0.64614230     0.02400
C1244       C  0.51272775  0.18116123  0.63176154    -0.04400
C1245       C  0.49701925  0.20053037  0.62881728    -0.00600
C1246       C  0.47454681  0.20078668  0.64047394    -0.03200
C1247       C  0.47538098  0.14191411  0.67155604     0.36100
C1248       C  0.50437953  0.22072699  0.61467612     0.39700
C1249       C  0.52176731  0.14204783  0.64930958     0.38800
C1250       C  0.45887058  0.22113893  0.63823079     0.35800
C1251       C  0.46762269  0.19081789  0.70501224     0.36400
C1252       C  0.37798396  0.18511291  0.65654105     0.39700
N1253       N  0.53464091  0.12624032  0.65194747    -0.38400
N1254       N  0.46930359  0.12594325  0.68290367    -0.40000
N1255       N  0.51022460  0.23685668  0.60343602    -0.37700
N1256       N  0.44630162  0.23730146  0.63642962    -0.40100
N1257       N  0.42146081  0.17133764  0.61127712    -0.39900
N1258       N  0.35995488  0.18580576  0.64646557    -0.37500
N1259       N  0.42393715  0.19844536  0.75136602    -0.38600
N1260       N  0.48572807  0.19359509  0.71456884    -0.40200
C1261       C  0.35507461  0.44677246  0.48062493    -0.05200
C1262       C  0.36437109  0.46027611  0.49938766     0.09000
C1263       C  0.37655674  0.44899273  0.51812055    -0.02500
C1264       C  0.37958843  0.42429632  0.51806436    -0.00800
C1265       C  0.36982557  0.41049287  0.49947948    -0.04400
C1266       C  0.35730546  0.42204839  0.48082368     0.02600
C1267       C  0.36192955  0.48653790  0.49896486     0.09400
C1268       C  0.38635937  0.46295571  0.53731715     0.35300
C1269       C  0.34601653  0.40875064  0.46192482     0.38800
C1270       C  0.33940998  0.49728609  0.50349901    -0.04800
C1271       C  0.33712918  0.52202149  0.50253373     0.02400
C1272       C  0.35732208  0.53606760  0.49706353    -0.04400
C1273       C  0.37980535  0.52538296  0.49264306    -0.00600
C1274       C  0.38212183  0.50068501  0.49358172    -0.03200
C1275       C  0.31864225  0.48290716  0.50934295     0.36100
C1276       C  0.40064785  0.53988451  0.48746624     0.39700
C1277       C  0.31401015  0.53304447  0.50711752     0.38800
C1278       C  0.40534987  0.48979312  0.48922206     0.35800
C1279       C  0.34350177  0.45843582  0.46077752     0.36400
C1280       C  0.39348932  0.41343301  0.53685461     0.39700
N1281       N  0.29555221  0.54181593  0.51076894    -0.38400
N1282       N  0.30201230  0.47150005  0.51393912    -0.40000
N1283       N  0.41725954  0.55149174  0.48338256    -0.37700
N1284       N  0.42389806  0.48104080  0.48603031    -0.40100
N1285       N  0.39434485  0.47416260  0.55247812    -0.39900
N1286       N  0.40459508  0.40491493  0.55190861    -0.37500
N1287       N  0.33711329  0.39815001  0.44681642    -0.38600
N1288       N  0.33432506  0.46766551  0.44489713    -0.40200
C1289       C  0.35013836  0.30753194  0.42930357    -0.05200
C1290       C  0.36057906  0.31778473  0.40886810     0.09000
C1291       C  0.37650340  0.33687221  0.41123271    -0.02500
C1292       C  0.38151924  0.34614386  0.43389376    -0.00800
C1293       C  0.37054989  0.33637609  0.45458997    -0.04400
C1294       C  0.35496923  0.31675978  0.45206199     0.02600
C1295       C  0.35447416  0.30868088  0.38469905     0.09400
C1296       C  0.38747319  0.34721273  0.39017232     0.35300
C1297       C  0.34264426  0.30676113  0.47254076     0.38800
C1298       C  0.33313432  0.31596743  0.37354843    -0.04800
C1299       C  0.32731229  0.30741239  0.35078076     0.02400
C1300       C  0.34234199  0.29070651  0.33924619    -0.04400
C1301       C  0.36434843  0.28428055  0.35016260    -0.00600
C1302       C  0.37024497  0.29315871  0.37281611    -0.03200
C1303       C  0.31708304  0.33229283  0.38562265     0.36100
C1304       C  0.38118887  0.26863415  0.33833322     0.39700
C1305       C  0.30661753  0.31714287  0.33873945     0.38800
C1306       C  0.39245946  0.28613960  0.38420266     0.35800
C1307       C  0.33398033  0.28767615  0.42674838     0.36400
C1308       C  0.39786341  0.36597253  0.43562793     0.39700
N1309       N  0.29029901  0.32561887  0.32939704    -0.38400
N1310       N  0.30419911  0.34519674  0.39529899    -0.40000
N1311       N  0.39516072  0.25659883  0.32902742    -0.37700
N1312       N  0.41012640  0.28071701  0.39345651    -0.40100
N1313       N  0.39627207  0.35540160  0.37338276    -0.39900
N1314       N  0.41068224  0.38195420  0.43686630    -0.37500
N1315       N  0.33274333  0.29875568  0.48882365    -0.38600
N1316       N  0.32107744  0.27187165  0.42458797    -0.40200
C1317       C  0.34701810  0.32863116  0.58006208    -0.05200
C1318       C  0.36226558  0.30965158  0.58580669     0.09000
C1319       C  0.38156188  0.30375324  0.57049744    -0.02500
C1320       C  0.38510024  0.31630762  0.54904259    -0.00800
C1321       C  0.36929428  0.33483293  0.54283586    -0.04400
C1322       C  0.35034155  0.34104705  0.55860827     0.02600
C1323       C  0.35793065  0.29609916  0.60824326     0.09400
C1324       C  0.39814612  0.28523733  0.57729615     0.35300
C1325       C  0.33377858  0.35988752  0.55261202     0.38800
C1326       C  0.34486623  0.27485500  0.60773877    -0.04800
C1327       C  0.33951773  0.26281112  0.62907400     0.02400
C1328       C  0.34576996  0.27276744  0.65124040    -0.04400
C1329       C  0.35938375  0.29386208  0.65160315    -0.00600
C1330       C  0.36568157  0.30525097  0.63013485    -0.03200
C1331       C  0.33601730  0.26594458  0.58530581     0.36100
C1332       C  0.36610388  0.30455606  0.67398457     0.39700
C1333       C  0.32831189  0.23978210  0.62804298     0.38800
C1334       C  0.37942600  0.32694542  0.63047547     0.35800
C1335       C  0.32807606  0.33560389  0.59651551     0.36400
C1336       C  0.40560054  0.31082874  0.53393314     0.39700
N1337       N  0.31967875  0.22128440  0.62699785    -0.38400
N1338       N  0.32869783  0.25901041  0.56744875    -0.40000
N1339       N  0.37154795  0.31318139  0.69176200    -0.37700
N1340       N  0.39030285  0.34430248  0.63052416    -0.40100
N1341       N  0.41139751  0.27056206  0.58294344    -0.39900
N1342       N  0.42207899  0.30651712  0.52200695    -0.37500
N1343       N  0.32063741  0.37496710  0.54785047    -0.38600
N1344       N  0.31318771  0.34129616  0.60981268    -0.40200
C1345       C  0.58943261  0.45671606  0.21029138    -0.05200
C1346       C  0.57777141  0.47488782  0.19780429     0.09000
C1347       C  0.59135298  0.49123029  0.18448628    -0.02500
C1348       C  0.61667626  0.49015081  0.18460600    -0.00800
C1349       C  0.62855407  0.47302162  0.19863010    -0.04400
C1350       C  0.61471397  0.45598688  0.21112042     0.02600
C1351       C  0.55119871  0.47776769  0.20006505     0.09400
C1352       C  0.57912264  0.50927021  0.17084735     0.35300
C1353       C  0.62624756  0.43835175  0.22587653     0.38800
C1354       C  0.54154173  0.49109524  0.21902311    -0.04800
C1355       C  0.51645171  0.49366378  0.22160528     0.02400
C1356       C  0.50087809  0.48272098  0.20527583    -0.04400
C1357       C  0.51067013  0.46935882  0.18627243    -0.00600
C1358       C  0.53577056  0.46698972  0.18365167    -0.03200
C1359       C  0.55755639  0.50170741  0.23616666     0.36100
C1360       C  0.49495909  0.45810593  0.16927007     0.39700
C1361       C  0.50673671  0.50658024  0.24175300     0.38800
C1362       C  0.54579310  0.45322718  0.16424607     0.35800
C1363       C  0.57530545  0.43889651  0.22252586     0.36400
C1364       C  0.63037794  0.50638807  0.16988066     0.39700
N1365       N  0.49903241  0.51685806  0.25786160    -0.38400
N1366       N  0.57047369  0.51001716  0.24979635    -0.40000
N1367       N  0.48245200  0.44903186  0.15575854    -0.37700
N1368       N  0.55379217  0.44224039  0.14876956    -0.40100
N1369       N  0.56920226  0.52357591  0.16000075    -0.39900
N1370       N  0.64127303  0.51929766  0.15805809    -0.37500
N1371       N  0.63546879  0.42431459  0.23765033    -0.38600
N1372       N  0.56406654  0.42455302  0.23211126    -0.40200
C1373       C  0.39035493  0.41554591  0.20689362    -0.05200
C1374       C  0.39968545  0.39727765  0.22110667     0.09000
C1375       C  0.42193894  0.40021668  0.23251773    -0.02500
C1376       C  0.43465129  0.42153519  0.23006594    -0.00800
C1377       C  0.42507004  0.44016194  0.21623530    -0.04400
C1378       C  0.40314205  0.43679974  0.20417141     0.02600
C1379       C  0.38589187  0.37494704  0.22419511     0.09400
C1380       C  0.43165691  0.38132248  0.24698236     0.35300
C1381       C  0.39431593  0.45461796  0.18791487     0.38800
C1382       C  0.38498633  0.35835406  0.20553310    -0.04800
C1383       C  0.37178154  0.33739905  0.20846950     0.02400
C1384       C  0.35984478  0.33282847  0.23019672    -0.04400
C1385       C  0.36060739  0.34940834  0.24878683    -0.00600
C1386       C  0.37340031  0.37056720  0.24570367    -0.03200
C1387       C  0.39775049  0.36278357  0.18338315     0.36100
C1388       C  0.34797259  0.34474043  0.27097738     0.39700
C1389       C  0.37099102  0.32021262  0.18941282     0.38800
C1390       C  0.37353909  0.38795036  0.26456591     0.35800
C1391       C  0.36743386  0.41239989  0.19521717     0.36400
C1392       C  0.45749778  0.42421757  0.24203651     0.39700
N1393       N  0.37029595  0.30645111  0.17427907    -0.38400
N1394       N  0.40780746  0.36630287  0.16564133    -0.40000
N1395       N  0.33786937  0.34090945  0.28862778    -0.37700
N1396       N  0.37362412  0.40180963  0.27962437    -0.40100
N1397       N  0.43938485  0.36635301  0.25864662    -0.39900
N1398       N  0.47583555  0.42624185  0.25136759    -0.37500
N1399       N  0.38733060  0.46865043  0.17471316    -0.38600
N1400       N  0.34915571  0.40959831  0.18599074    -0.40200
C1401       C  0.39648734  0.61339351  0.22346107    -0.05200
C1402       C  0.38484424  0.59160382  0.22697922     0.09000
C1403       C  0.36040758  0.59118411  0.23392293    -0.02500
C1404       C  0.34783106  0.61245675  0.23793597    -0.00800
C1405       C  0.35946530  0.63434982  0.23434028    -0.04400
C1406       C  0.38372893  0.63465862  0.22656312     0.02600
C1407       C  0.39862979  0.56908232  0.22415373     0.09400
C1408       C  0.34834881  0.56876891  0.23724497     0.35300
C1409       C  0.39540590  0.65679545  0.22075642     0.38800
C1410       C  0.40687323  0.55695722  0.24444646    -0.04800
C1411       C  0.42024461  0.53595162  0.24190226     0.02400
C1412       C  0.42541517  0.52696762  0.21904799    -0.04400
C1413       C  0.41733464  0.53915901  0.19875197    -0.00600
C1414       C  0.40383519  0.56009093  0.20128831    -0.03200
C1415       C  0.40145537  0.56616406  0.26793243     0.36100
C1416       C  0.42287834  0.53005832  0.17525693     0.39700
C1417       C  0.42888989  0.52370185  0.26278814     0.38800
C1418       C  0.39497401  0.57221003  0.18040952     0.35800
C1419       C  0.42181490  0.61392179  0.21712813     0.36400
C1420       C  0.32320992  0.61171781  0.24662388     0.39700
N1421       N  0.43583015  0.51401297  0.27949433    -0.38400
N1422       N  0.39687992  0.57362634  0.28656239    -0.40000
N1423       N  0.42741368  0.52276405  0.15655083    -0.37700
N1424       N  0.38786615  0.58183884  0.16373701    -0.40100
N1425       N  0.33882398  0.55083779  0.23990440    -0.39900
N1426       N  0.30359950  0.61109404  0.25363052    -0.37500
N1427       N  0.40477402  0.67433254  0.21578698    -0.38600
N1428       N  0.44205234  0.61438097  0.21222431    -0.40200
C1429       C  0.54333918  0.46671016  0.76794446    -0.05200
C1430       C  0.55145049  0.48086000  0.78682813     0.09000
C1431       C  0.53471100  0.49198823  0.80205419    -0.02500
C1432       C  0.50986744  0.48920209  0.79818498    -0.00800
C1433       C  0.50174818  0.47601377  0.77852655    -0.04400
C1434       C  0.51858529  0.46465928  0.76350359     0.02600
C1435       C  0.57777491  0.48469533  0.78966992     0.09400
C1436       C  0.54309499  0.50668789  0.82132546     0.35300
C1437       C  0.51059841  0.45188086  0.74272702     0.38800
C1438       C  0.58989140  0.50011682  0.77400835    -0.04800
C1439       C  0.61517821  0.50029000  0.77305331     0.02400
C1440       C  0.62851538  0.48616807  0.78897136    -0.04400
C1441       C  0.61620731  0.47245323  0.80623886    -0.00600
C1442       C  0.59091570  0.47115817  0.80607144    -0.03200
C1443       C  0.57619944  0.51522239  0.75827665     0.36100
C1444       C  0.62950102  0.45975608  0.82428590     0.39700
C1445       C  0.62719698  0.51364215  0.75444736     0.38800
C1446       C  0.57843375  0.45515681  0.82204761     0.35800
C1447       C  0.56063322  0.45457252  0.75284415     0.36400
C1448       C  0.49267475  0.49945333  0.81473396     0.39700
N1449       N  0.63660836  0.52417714  0.73941341    -0.38400
N1450       N  0.56523577  0.52735221  0.74585586    -0.40000
N1451       N  0.64009455  0.44976769  0.83877930    -0.37700
N1452       N  0.56846513  0.44227872  0.83467194    -0.40100
N1453       N  0.54979372  0.51848839  0.83664806    -0.39900
N1454       N  0.47898255  0.50744303  0.82807850    -0.37500
N1455       N  0.50437454  0.44179776  0.72602764    -0.38600
N1456       N  0.57455747  0.44492696  0.74093765    -0.40200
C1457       C  0.40053814  0.40224755  0.78073052    -0.05200
C1458       C  0.40067396  0.38960256  0.75916348     0.09000
C1459       C  0.41433092  0.39783162  0.73961348    -0.02500
C1460       C  0.42772196  0.41876592  0.74159503    -0.00800
C1461       C  0.42766260  0.43132416  0.76320519    -0.04400
C1462       C  0.41414706  0.42300787  0.78279448     0.02600
C1463       C  0.38720907  0.36701726  0.75743338     0.09400
C1464       C  0.41464699  0.38463703  0.71755112     0.35300
C1465       C  0.41446933  0.43568172  0.80515590     0.38800
C1466       C  0.36470552  0.36626214  0.74607186    -0.04800
C1467       C  0.35182438  0.34494741  0.74509075     0.02400
C1468       C  0.36169462  0.32427085  0.75500033    -0.04400
C1469       C  0.38444702  0.32494932  0.76590433    -0.00600
C1470       C  0.39703737  0.34634501  0.76735648    -0.03200
C1471       C  0.35498954  0.38733860  0.73514238     0.36100
C1472       C  0.39480403  0.30370232  0.77595202     0.39700
C1473       C  0.32881610  0.34407156  0.73317584     0.38800
C1474       C  0.42015557  0.34713712  0.77907078     0.35800
C1475       C  0.38640068  0.39379924  0.80077941     0.36400
C1476       C  0.44137508  0.42748813  0.72135819     0.39700
N1477       N  0.31047308  0.34325869  0.72367403    -0.38400
N1478       N  0.34729223  0.40407743  0.72621664    -0.40000
N1479       N  0.40317249  0.28679897  0.78392692    -0.37700
N1480       N  0.43852577  0.34779730  0.78853040    -0.40100
N1481       N  0.41479837  0.37405682  0.69998514    -0.39900
N1482       N  0.45218189  0.43439371  0.70512775    -0.37500
N1483       N  0.41480690  0.44567095  0.82306168    -0.38600
N1484       N  0.37513765  0.38696764  0.81673955    -0.40200
C1485       C  0.39965483  0.60294110  0.76081987    -0.05200
C1486       C  0.39035501  0.58330192  0.74869587     0.09000
C1487       C  0.36957669  0.58560040  0.73468701    -0.02500
C1488       C  0.35763984  0.60743558  0.73342273    -0.00800
C1489       C  0.36679548  0.62694999  0.74585943    -0.04400
C1490       C  0.38776243  0.62471199  0.75957836     0.02600
C1491       C  0.40229514  0.56004904  0.75132878     0.09400
C1492       C  0.36083378  0.56562044  0.72129364     0.35300
C1493       C  0.39646136  0.64455102  0.77329645     0.38800
C1494       C  0.39358463  0.54383972  0.76831756    -0.04800
C1495       C  0.40578960  0.52243504  0.77198344     0.02400
C1496       C  0.42699509  0.51739836  0.75892333    -0.04400
C1497       C  0.43567126  0.53372685  0.74190580    -0.00600
C1498       C  0.42319470  0.55494211  0.73800453    -0.03200
C1499       C  0.37249952  0.54960032  0.78255279     0.36100
C1500       C  0.45726671  0.52866417  0.72819569     0.39700
C1501       C  0.39706191  0.50611957  0.78995015     0.38800
C1502       C  0.43195966  0.57179005  0.72055644     0.35800
C1503       C  0.42152455  0.60071144  0.77450970     0.36400
C1504       C  0.33612668  0.60994149  0.71923284     0.39700
N1505       N  0.39001869  0.49319180  0.80431640    -0.38400
N1506       N  0.35575147  0.55427700  0.79395595    -0.40000
N1507       N  0.47453993  0.52475147  0.71728046    -0.37700
N1508       N  0.43882961  0.58537952  0.70674045    -0.40100
N1509       N  0.35396910  0.54971496  0.71046835    -0.39900
N1510       N  0.31892666  0.61204052  0.70799808    -0.37500
N1511       N  0.40322673  0.66033224  0.78436871    -0.38600
N1512       N  0.43909460  0.59897185  0.78522890    -0.40200
C1513       C  0.98371417  0.24700627  0.14429900    -0.05200
C1514       C  0.98555821  0.22749178  0.15973366     0.09000
C1515       C  0.00700032  0.21428078  0.16037984    -0.02500
C1516       C  0.02684230  0.22096623  0.14609767    -0.00800
C1517       C  0.02519307  0.24083379  0.13088277    -0.04400
C1518       C  0.00336105  0.25359391  0.12983613     0.02600
C1519       C  0.96484161  0.22150562  0.17567426     0.09400
C1520       C  0.00855624  0.19384500  0.17581200     0.35300
C1521       C  0.00131195  0.27418314  0.11465038     0.38800
C1522       C  0.94462407  0.20992750  0.16640819    -0.04800
C1523       C  0.92322074  0.20842884  0.17993141     0.02400
C1524       C  0.92205896  0.21835200  0.20303733    -0.04400
C1525       C  0.94317560  0.22795236  0.21302979    -0.00600
C1526       C  0.96445109  0.22956322  0.19933926    -0.03200
C1527       C  0.94578318  0.20009658  0.14263841     0.36100
C1528       C  0.94326534  0.23601411  0.23747583     0.39700
C1529       C  0.90218915  0.19774612  0.16938036     0.38800
C1530       C  0.98588316  0.23994591  0.20941383     0.35800
C1531       C  0.96164608  0.26067015  0.14372540     0.36400
C1532       C  0.04873427  0.20707236  0.14685186     0.39700
N1533       N  0.88556244  0.18908802  0.16082674    -0.38400
N1534       N  0.94682890  0.19220092  0.12370837    -0.40000
N1535       N  0.94377437  0.24241537  0.25697724    -0.37700
N1536       N  0.00305013  0.24804169  0.21748008    -0.40100
N1537       N  0.00971887  0.17755899  0.18815298    -0.39900
N1538       N  0.06611744  0.19587840  0.14763425    -0.37500
N1539       N  0.99972526  0.29055362  0.10247314    -0.38600
N1540       N  0.94403333  0.27153161  0.14329841    -0.40200
C1541       C  0.14881527  0.24505152  0.13861461    -0.05200
C1542       C  0.15561292  0.26680693  0.14858763     0.09000
C1543       C  0.14008559  0.28640199  0.14721449    -0.02500
C1544       C  0.11748559  0.28408971  0.13639192    -0.00800
C1545       C  0.11059570  0.26225659  0.12667978    -0.04400
C1546       C  0.12623699  0.24273639  0.12780433     0.02600
C1547       C  0.17841577  0.26844175  0.16210925     0.09400
C1548       C  0.14743576  0.30883926  0.15702998     0.35300
C1549       C  0.11891651  0.22019773  0.11816018     0.38800
C1550       C  0.20021631  0.27377992  0.15036194    -0.04800
C1551       C  0.22206411  0.27269079  0.16285805     0.02400
C1552       C  0.22205797  0.26556730  0.18694533    -0.04400
C1553       C  0.19995982  0.26266688  0.19916283    -0.00600
C1554       C  0.17820712  0.26374451  0.18669458    -0.03200
C1555       C  0.20011674  0.27965506  0.12527097     0.36100
C1556       C  0.19959414  0.25939464  0.22474799     0.39700
C1557       C  0.24438156  0.27845953  0.15074202     0.38800
C1558       C  0.15560034  0.25931554  0.19895373     0.35800
C1559       C  0.16507318  0.22506422  0.13959734     0.36400
C1560       C  0.10103560  0.30392989  0.13583608     0.39700
N1561       N  0.26202604  0.28320267  0.14080656    -0.38400
N1562       N  0.19993575  0.28429704  0.10523872    -0.40000
N1563       N  0.19924411  0.25722464  0.24520277    -0.37700
N1564       N  0.13751155  0.25574007  0.20859944    -0.40100
N1565       N  0.15346927  0.32671773  0.16480331    -0.39900
N1566       N  0.08782599  0.31969769  0.13554362    -0.37500
N1567       N  0.11302826  0.20219365  0.11056924    -0.38600
N1568       N  0.17812166  0.20918164  0.14029561    -0.40200
C1569       C  0.99425844  0.70010076  0.84482603    -0.05200
C1570       C  0.98377076  0.68228767  0.83086862     0.09000
C1571       C  0.99520244  0.66015727  0.82886590    -0.02500
C1572       C  0.01702319  0.65584040  0.84074776    -0.00800
C1573       C  0.02737555  0.67355746  0.85494130    -0.04400
C1574       C  0.01586183  0.69568521  0.85702299     0.02600
C1575       C  0.96040125  0.68676218  0.81860867     0.09400
C1576       C  0.98432439  0.64179892  0.81469404     0.35300
C1577       C  0.02640649  0.71404484  0.87148770     0.38800
C1578       C  0.96009902  0.69772403  0.79610118    -0.04800
C1579       C  0.93800853  0.70272525  0.78496631     0.02400
C1580       C  0.91601394  0.69696733  0.79641002    -0.04400
C1581       C  0.91642909  0.68543820  0.81870023    -0.00600
C1582       C  0.93854175  0.68026369  0.82967395    -0.03200
C1583       C  0.98261271  0.70372157  0.78439694     0.36100
C1584       C  0.89409465  0.67962644  0.83081577     0.39700
C1585       C  0.93801867  0.71308646  0.76138134     0.38800
C1586       C  0.93886407  0.66834165  0.85248428     0.35800
C1587       C  0.98277747  0.72300198  0.84658463     0.36400
C1588       C  0.02840756  0.63289840  0.83902079     0.39700
N1589       N  0.93823506  0.72118231  0.74248928    -0.38400
N1590       N  0.00061794  0.70844817  0.77511555    -0.40000
N1591       N  0.87630318  0.67499034  0.84053492    -0.37700
N1592       N  0.93916043  0.65872161  0.87062746    -0.40100
N1593       N  0.97552628  0.62718732  0.80341414    -0.39900
N1594       N  0.03747586  0.61457722  0.83770790    -0.37500
N1595       N  0.03478809  0.72864542  0.88309661    -0.38600
N1596       N  0.97367054  0.74130519  0.84790130    -0.40200
C1597       C  0.19309137  0.66298786  0.80170613    -0.05200
C1598       C  0.18685520  0.67038906  0.82487293     0.09000
C1599       C  0.20312373  0.68420880  0.83795799    -0.02500
C1600       C  0.22477716  0.69197330  0.82734236    -0.00800
C1601       C  0.23056181  0.68543006  0.80377861    -0.04400
C1602       C  0.21484887  0.67055873  0.79111689     0.02600
C1603       C  0.16188584  0.66657669  0.83422173     0.09400
C1604       C  0.19729923  0.69078071  0.86222790     0.35300
C1605       C  0.22025077  0.66438498  0.76663030     0.38800
C1606       C  0.15641126  0.64741741  0.84931145    -0.04800
C1607       C  0.13314545  0.64526656  0.85940366     0.02400
C1608       C  0.11526090  0.66228851  0.85440569    -0.04400
C1609       C  0.12061275  0.68094252  0.83852586    -0.00600
C1610       C  0.14379136  0.68301916  0.82848709    -0.03200
C1611       C  0.17481564  0.63012614  0.85460551     0.36100
C1612       C  0.10270174  0.69884608  0.83346027     0.39700
C1613       C  0.12752060  0.62540682  0.87470634     0.38800
C1614       C  0.14928846  0.70255373  0.81268721     0.35800
C1615       C  0.17672127  0.64810266  0.78860933     0.36400
C1616       C  0.24093405  0.70706411  0.84049415     0.39700
N1617       N  0.12297690  0.60951788  0.88684534    -0.38400
N1618       N  0.18950865  0.61631169  0.85880177    -0.40000
N1619       N  0.08834102  0.71305904  0.82948675    -0.37700
N1620       N  0.15369391  0.71811720  0.80008438    -0.40100
N1621       N  0.19270985  0.69585390  0.88165788    -0.39900
N1622       N  0.25381585  0.71921770  0.85085138    -0.37500
N1623       N  0.22444228  0.65963793  0.74702855    -0.38600
N1624       N  0.16361942  0.63615718  0.77828292    -0.40200
C1625       C  0.22769806  0.85454511  0.26983821    -0.05200
C1626       C  0.23826587  0.87606508  0.26288696     0.09000
C1627       C  0.26227467  0.87638991  0.25456305    -0.02500
C1628       C  0.27560711  0.85522999  0.25297639    -0.00800
C1629       C  0.26490615  0.83360018  0.25959323    -0.04400
C1630       C  0.24109354  0.83347973  0.26863435     0.02600
C1631       C  0.22434236  0.89853159  0.26529582     0.09400
C1632       C  0.27310687  0.89855899  0.24745814     0.35300
C1633       C  0.23074726  0.81188914  0.27798285     0.38800
C1634       C  0.22163934  0.90919016  0.28783541    -0.04800
C1635       C  0.20841794  0.93026466  0.29026183     0.02400
C1636       C  0.19758239  0.94059466  0.27024191    -0.04400
C1637       C  0.20024438  0.93001009  0.24770068    -0.00600
C1638       C  0.21375062  0.90909215  0.24519141    -0.03200
C1639       C  0.23259382  0.89847940  0.30850463     0.36100
C1640       C  0.18932840  0.94081739  0.22705254     0.39700
C1641       C  0.20592786  0.94139754  0.31334435     0.38800
C1642       C  0.21691707  0.89851842  0.22192305     0.35800
C1643       C  0.20291304  0.85408843  0.27808815     0.36400
C1644       C  0.30020932  0.85574762  0.24430093     0.39700
N1645       N  0.20391983  0.95041325  0.33168874    -0.38400
N1646       N  0.24129085  0.88985517  0.32498233    -0.40000
N1647       N  0.18070450  0.94942639  0.21052875    -0.37700
N1648       N  0.21958102  0.89021949  0.20330923    -0.40100
N1649       N  0.28153693  0.91632143  0.24170592    -0.39900
N1650       N  0.31989142  0.85629776  0.23750026    -0.37500
N1651       N  0.22246916  0.79488491  0.28590864    -0.38600
N1652       N  0.18312701  0.85370631  0.28459885    -0.40200
C1653       C  0.23316647  0.10630527  0.24565741    -0.05200
C1654       C  0.23513718  0.09304482  0.26675691     0.09000
C1655       C  0.25023779  0.10110418  0.28502633    -0.02500
C1656       C  0.26301312  0.12250779  0.28242981    -0.00800
C1657       C  0.26116367  0.13597425  0.26120891    -0.04400
C1658       C  0.24630696  0.12735222  0.24268063     0.02600
C1659       C  0.22180666  0.07015812  0.26924588     0.09400
C1660       C  0.25270406  0.08719584  0.30653721     0.35300
C1661       C  0.24485632  0.13954321  0.22001903     0.38800
C1662       C  0.22888484  0.05053833  0.25550441    -0.04800
C1663       C  0.21545932  0.02951096  0.25632518     0.02400
C1664       C  0.19559715  0.02722539  0.27216901    -0.04400
C1665       C  0.18867012  0.04693826  0.28613800    -0.00600
C1666       C  0.20156793  0.06833189  0.28444719    -0.03200
C1667       C  0.25015650  0.05201559  0.24045475     0.36100
C1668       C  0.16847632  0.04543266  0.30253287     0.39700
C1669       C  0.22148393  0.01075029  0.23978436     0.38800
C1670       C  0.19399961  0.08855791  0.29838949     0.35800
C1671       C  0.21761846  0.09812053  0.22678668     0.36400
C1672       C  0.27750728  0.13067409  0.30203892     0.39700
N1673       N  0.22615963  0.99585313  0.22649352    -0.38400
N1674       N  0.26713232  0.05323807  0.22848705    -0.40000
N1675       N  0.15232424  0.04466216  0.31560527    -0.37700
N1676       N  0.18803205  0.10463915  0.30961398    -0.40100
N1677       N  0.25455916  0.07609870  0.32369841    -0.39900
N1678       N  0.28898390  0.13678883  0.31792331    -0.37500
N1679       N  0.24344876  0.14909393  0.20189461    -0.38600
N1680       N  0.20536847  0.09151115  0.21168624    -0.40200
C1681       C  0.92037153  0.89836776  0.72491705    -0.05200
C1682       C  0.89688264  0.89745227  0.73441773     0.09000
C1683       C  0.88561057  0.91810337  0.74264788    -0.02500
C1684       C  0.89840342  0.93943678  0.74309211    -0.00800
C1685       C  0.92222389  0.94050961  0.73389157    -0.04400
C1686       C  0.93282999  0.91993248  0.72409184     0.02600
C1687       C  0.88411329  0.87451717  0.73619569     0.09400
C1688       C  0.86070736  0.91734192  0.75050924     0.35300
C1689       C  0.95619242  0.92092753  0.71244383     0.38800
C1690       C  0.88448699  0.86177987  0.75766465    -0.04800
C1691       C  0.87339627  0.83957343  0.75915111     0.02400
C1692       C  0.86171017  0.82994712  0.73905157    -0.04400
C1693       C  0.86111735  0.84310893  0.71760623    -0.00600
C1694       C  0.87211259  0.86541478  0.71633986    -0.03200
C1695       C  0.89645697  0.87154518  0.77824458     0.36100
C1696       C  0.85054167  0.83340014  0.69630674     0.39700
C1697       C  0.87430436  0.82675312  0.78147947     0.38800
C1698       C  0.87131920  0.87909171  0.69454054     0.35800
C1699       C  0.93164576  0.87702779  0.71597972     0.36400
C1700       C  0.88718995  0.95987880  0.75403336     0.39700
N1701       N  0.87547320  0.81653766  0.79924783    -0.38400
N1702       N  0.90590718  0.87931220  0.79470390    -0.40000
N1703       N  0.84239310  0.82601721  0.67900564    -0.37700
N1704       N  0.87075321  0.89016491  0.67726742    -0.40100
N1705       N  0.84076597  0.91677638  0.75650108    -0.39900
N1706       N  0.87825190  0.97615643  0.76279917    -0.37500
N1707       N  0.97475609  0.92168684  0.70302355    -0.38600
N1708       N  0.94054293  0.85996230  0.70887014    -0.40200
C1709       C  0.90555850  0.06107992  0.75099052    -0.05200
C1710       C  0.89580090  0.06792296  0.72898467     0.09000
C1711       C  0.90051529  0.05453973  0.70839505    -0.02500
C1712       C  0.91441184  0.03386251  0.70993591    -0.00800
C1713       C  0.92384728  0.02680374  0.73202603    -0.04400
C1714       C  0.91985284  0.04068675  0.75245950     0.02600
C1715       C  0.88088118  0.08961638  0.72757906     0.09400
C1716       C  0.89112052  0.06218804  0.68569255     0.35300
C1717       C  0.93014220  0.03379720  0.77504682     0.38800
C1718       C  0.89191888  0.11141080  0.72274186    -0.04800
C1719       C  0.87835180  0.13232305  0.72401819     0.02400
C1720       C  0.85358821  0.13142662  0.72996657    -0.04400
C1721       C  0.84227105  0.10934727  0.73318218    -0.00600
C1722       C  0.85600731  0.08850092  0.73230906    -0.03200
C1723       C  0.91739381  0.11219628  0.71701710     0.36100
C1724       C  0.81675000  0.10797885  0.73843784     0.39700
C1725       C  0.88988856  0.15473079  0.71906254     0.38800
C1726       C  0.84479737  0.06591449  0.73715290     0.35800
C1727       C  0.90062182  0.07496900  0.77211385     0.36400
C1728       C  0.91954236  0.02018913  0.68872739     0.39700
N1729       N  0.89914902  0.17256038  0.71505848    -0.38400
N1730       N  0.93770875  0.11252768  0.71242798    -0.40000
N1731       N  0.79637732  0.10658899  0.74249844    -0.37700
N1732       N  0.83593868  0.04788692  0.74113055    -0.40100
N1733       N  0.88366631  0.06844192  0.66760919    -0.39900
N1734       N  0.92373503  0.00936728  0.67177272    -0.37500
N1735       N  0.93849746  0.02836765  0.79300977    -0.38600
N1736       N  0.89652525  0.08608269  0.78889770    -0.40200
C1737       C  0.28245332  0.14422585  0.87291347    -0.05200
C1738       C  0.26586659  0.15515124  0.88846711     0.09000
C1739       C  0.25398197  0.17596256  0.88148860    -0.02500
C1740       C  0.25969387  0.18657365  0.85946852    -0.00800
C1741       C  0.27727667  0.17627535  0.84444411    -0.04400
C1742       C  0.28810283  0.15471964  0.85092474     0.02600
C1743       C  0.26208302  0.14511019  0.91269387     0.09400
C1744       C  0.23613660  0.18649244  0.89714084     0.35300
C1745       C  0.30480455  0.14313330  0.83477709     0.38800
C1746       C  0.27615984  0.15325508  0.93166152    -0.04800
C1747       C  0.27587411  0.14124081  0.95360013     0.02400
C1748       C  0.26069636  0.12144670  0.95697083    -0.04400
C1749       C  0.24550171  0.11426840  0.93819839    -0.00600
C1750       C  0.24650040  0.12588066  0.91606220    -0.03200
C1751       C  0.29163186  0.17356391  0.92819348     0.36100
C1752       C  0.22876696  0.09492560  0.94146271     0.39700
C1753       C  0.29253469  0.14838531  0.97191922     0.38800
C1754       C  0.23206273  0.11765350  0.89639981     0.35800
C1755       C  0.29391944  0.12228757  0.87976973     0.36400
C1756       C  0.24814195  0.20847473  0.85270846     0.39700
N1757       N  0.30601469  0.15413383  0.98633654    -0.38400
N1758       N  0.30382811  0.18983281  0.92531136    -0.40000
N1759       N  0.21544356  0.07946138  0.94394485    -0.37700
N1760       N  0.22071630  0.11109800  0.88059917    -0.40100
N1761       N  0.22184981  0.19477811  0.90966460    -0.39900
N1762       N  0.23886483  0.22592544  0.84733514    -0.37500
N1763       N  0.31802187  0.13382898  0.82185082    -0.38600
N1764       N  0.30291521  0.10475366  0.88533657    -0.40200
C1765       C  0.26716082  0.17234310  0.11624372    -0.05200
C1766       C  0.27393807  0.14850267  0.11372628     0.09000
C1767       C  0.28486308  0.13657529  0.13287527    -0.02500
C1768       C  0.29047897  0.14890409  0.15383141    -0.00800
C1769       C  0.28431523  0.17291119  0.15599910    -0.04400
C1770       C  0.27207452  0.18438571  0.13746080     0.02600
C1771       C  0.27133439  0.13668671  0.09021510     0.09400
C1772       C  0.29057864  0.11172382  0.13081719     0.35300
C1773       C  0.26546126  0.20894153  0.13981968     0.38800
C1774       C  0.29189552  0.13285251  0.07579605    -0.04800
C1775       C  0.28947212  0.12299674  0.05300598     0.02400
C1776       C  0.26646948  0.11739565  0.04439485    -0.04400
C1777       C  0.24591821  0.12139515  0.05863643    -0.00600
C1778       C  0.24836904  0.13057763  0.08172179    -0.03200
C1779       C  0.31555306  0.13903492  0.08446254     0.36100
C1780       C  0.22224689  0.11639688  0.04931760     0.39700
C1781       C  0.31064814  0.11849195  0.03845994     0.38800
C1782       C  0.22733971  0.13343666  0.09685977     0.35800
C1783       C  0.25589064  0.18475089  0.09669314     0.36400
C1784       C  0.30278240  0.13701296  0.17305836     0.39700
N1785       N  0.32757613  0.11489183  0.02691798    -0.38400
N1786       N  0.33438949  0.14382574  0.09153693    -0.40000
N1787       N  0.20338762  0.11261785  0.04171330    -0.37700
N1788       N  0.21053251  0.13560002  0.10892833    -0.40100
N1789       N  0.29510380  0.09188662  0.12913438    -0.39900
N1790       N  0.31266230  0.12755789  0.18838084    -0.37500
N1791       N  0.26017727  0.22854739  0.14165325    -0.38600
N1792       N  0.24684815  0.19467474  0.08116126    -0.40200
C1793       C  0.86290431  0.82891052  0.91618812    -0.05200
C1794       C  0.84096428  0.82144543  0.90625067     0.09000
C1795       C  0.81901706  0.82731354  0.91765123    -0.02500
C1796       C  0.81908129  0.83990880  0.93917019    -0.00800
C1797       C  0.84102319  0.84633577  0.94962178    -0.04400
C1798       C  0.86292035  0.84133750  0.93788652     0.02600
C1799       C  0.84079437  0.80792493  0.88345334     0.09400
C1800       C  0.79633419  0.82023950  0.90735921     0.35300
C1801       C  0.88539835  0.84898551  0.94815940     0.38800
C1802       C  0.84753312  0.78389217  0.88300069    -0.04800
C1803       C  0.84593011  0.77092615  0.86170333     0.02400
C1804       C  0.83737315  0.78187452  0.84092242    -0.04400
C1805       C  0.83108876  0.80595779  0.84123687    -0.00600
C1806       C  0.83306217  0.81901614  0.86237861    -0.03200
C1807       C  0.85571869  0.77240826  0.90451222     0.36100
C1808       C  0.82225831  0.81722507  0.81984198     0.39700
C1809       C  0.85262844  0.74621766  0.86122048     0.38800
C1810       C  0.82689730  0.84385950  0.86257854     0.35800
C1811       C  0.88541055  0.82374303  0.90407598     0.36400
C1812       C  0.79654745  0.84640286  0.95061634     0.39700
N1813       N  0.85797454  0.72650985  0.86080529    -0.38400
N1814       N  0.86237763  0.76320433  0.92160733    -0.40000
N1815       N  0.81530406  0.82622796  0.80275502    -0.37700
N1816       N  0.82191488  0.86365870  0.86288351    -0.40100
N1817       N  0.77817633  0.81479515  0.89915192    -0.39900
N1818       N  0.77865764  0.85179563  0.95976011    -0.37500
N1819       N  0.90334116  0.85522682  0.95625220    -0.38600
N1820       N  0.90334178  0.81952660  0.89439409    -0.40200
C1821       C  0.84270178  0.81801686  0.07456046    -0.05200
C1822       C  0.82511165  0.80019786  0.07295747     0.09000
C1823       C  0.81120769  0.79817951  0.05224708    -0.02500
C1824       C  0.81494117  0.81381908  0.03312400    -0.00800
C1825       C  0.83244355  0.83180985  0.03475146    -0.04400
C1826       C  0.84643756  0.83371583  0.05547615     0.02600
C1827       C  0.82085312  0.78395417  0.09343937     0.09400
C1828       C  0.79271012  0.78025268  0.05082147     0.35300
C1829       C  0.86527681  0.85130326  0.05685485     0.38800
C1830       C  0.80079220  0.78749050  0.10854848    -0.04800
C1831       C  0.79786004  0.77354147  0.12905725     0.02400
C1832       C  0.81522848  0.75640155  0.13481638    -0.04400
C1833       C  0.83478105  0.75218081  0.11926392    -0.00600
C1834       C  0.83743184  0.76576775  0.09841031    -0.03200
C1835       C  0.78377250  0.80620620  0.10355291     0.36100
C1836       C  0.85261821  0.73450623  0.12517567     0.39700
C1837       C  0.77753160  0.77750896  0.14489342     0.38800
C1838       C  0.85759857  0.76160296  0.08243115     0.35800
C1839       C  0.85674279  0.82039400  0.09602799     0.36400
C1840       C  0.80031180  0.81156682  0.01203163     0.39700
N1841       N  0.76133971  0.78056470  0.15757107    -0.38400
N1842       N  0.77022468  0.82115478  0.09954422    -0.40000
N1843       N  0.86694215  0.72046488  0.12980830    -0.37700
N1844       N  0.87370367  0.75836560  0.06968401    -0.40100
N1845       N  0.77777450  0.76614079  0.04974568    -0.39900
N1846       N  0.78864828  0.80946570  0.99524671    -0.37500
N1847       N  0.88033685  0.86529966  0.05781562    -0.38600
N1848       N  0.86796715  0.82231056  0.11313166    -0.40200
C1849       C  0.05040561  0.25611945  0.01487895    -0.05200
C1850       C  0.06249277  0.27578001  0.00521185     0.09000
C1851       C  0.07317235  0.29233270  0.02044875    -0.02500
C1852       C  0.07268050  0.28873580  0.04526974    -0.00800
C1853       C  0.06128558  0.26855317  0.05505467    -0.04400
C1854       C  0.04932692  0.25275458  0.03970043     0.02600
C1855       C  0.06383041  0.27902371  0.97885935     0.09400
C1856       C  0.08486190  0.31296976  0.01045749     0.35300
C1857       C  0.03629085  0.23267403  0.04921090     0.38800
C1858       C  0.04697790  0.29349073  0.96730522    -0.04800
C1859       C  0.04707602  0.29519286  0.94231232     0.02400
C1860       C  0.06402678  0.28227312  0.92858253    -0.04400
C1861       C  0.08198270  0.26901475  0.94042187    -0.00600
C1862       C  0.08168196  0.26727393  0.96545432    -0.03200
C1863       C  0.02940825  0.30654016  0.98123131     0.36100
C1864       C  0.10059793  0.25669900  0.92715239     0.39700
C1865       C  0.03004497  0.31081506  0.93083897     0.38800
C1866       C  0.09958088  0.25311295  0.97753155     0.35800
C1867       C  0.03956505  0.23898188  0.99917147     0.36400
C1868       C  0.08334943  0.30624132  0.06068475     0.39700
N1869       N  0.01649953  0.32327808  0.92165061    -0.38400
N1870       N  0.01548155  0.31703396  0.99237054    -0.40000
N1871       N  0.11579064  0.24701296  0.91691290    -0.37700
N1872       N  0.11382274  0.24181692  0.98719607    -0.40100
N1873       N  0.09408556  0.32944001  0.00239613    -0.39900
N1874       N  0.09184967  0.32028825  0.07288586    -0.37500
N1875       N  0.02562818  0.21683212  0.05681344    -0.38600
N1876       N  0.03108923  0.22516258  0.98669961    -0.40200
C1877       C  0.97433076  0.25547295  0.85677963    -0.05200
C1878       C  0.96693834  0.26983726  0.83773136     0.09000
C1879       C  0.98263971  0.28725136  0.82867228    -0.02500
C1880       C  0.00547487  0.29056353  0.83890878    -0.00800
C1881       C  0.01312231  0.27589438  0.85774092    -0.04400
C1882       C  0.99731357  0.25839854  0.86671884     0.02600
C1883       C  0.94290504  0.26584744  0.82665243     0.09400
C1884       C  0.97539878  0.30151502  0.80854986     0.35300
C1885       C  0.00483549  0.24285221  0.88576460     0.38800
C1886       C  0.92168503  0.27413114  0.83781845    -0.04800
C1887       C  0.89896007  0.26870162  0.82821282     0.02400
C1888       C  0.89741907  0.25587695  0.80672829    -0.04400
C1889       C  0.91885620  0.24910023  0.79479762    -0.00600
C1890       C  0.94136097  0.25303807  0.80530346    -0.03200
C1891       C  0.92332302  0.28805708  0.85932724     0.36100
C1892       C  0.91797164  0.23949834  0.77093233     0.39700
C1893       C  0.87727610  0.27586309  0.84076443     0.38800
C1894       C  0.96295394  0.24329841  0.79448964     0.35800
C1895       C  0.95841022  0.23718694  0.86567584     0.36400
C1896       C  0.02060727  0.30976965  0.83073106     0.39700
N1897       N  0.86001279  0.28158879  0.85084522    -0.38400
N1898       N  0.92471448  0.29923169  0.87644338    -0.40000
N1899       N  0.91739793  0.23235772  0.75169208    -0.37700
N1900       N  0.98016379  0.23528287  0.78607493    -0.40100
N1901       N  0.96973988  0.31270639  0.79231770    -0.39900
N1902       N  0.03252633  0.32525971  0.82433309    -0.37500
N1903       N  0.01076234  0.23046875  0.90099556    -0.38600
N1904       N  0.94559983  0.22263811  0.87263022    -0.40200
C1905       C  0.13234387  0.29692615  0.82370782    -0.05200
C1906       C  0.14580522  0.27587626  0.82439674     0.09000
C1907       C  0.13697888  0.25624893  0.83713021    -0.02500
C1908       C  0.11457364  0.25755893  0.84886397    -0.00800
C1909       C  0.10153879  0.27891648  0.84906266    -0.04400
C1910       C  0.11049150  0.29864406  0.83652355     0.02600
C1911       C  0.16988464  0.27447128  0.81264113     0.09400
C1912       C  0.15145141  0.23502620  0.83889242     0.35300
C1913       C  0.09789656  0.32098111  0.83778215     0.38800
C1914       C  0.19055706  0.28118006  0.82526727    -0.04800
C1915       C  0.21359847  0.27658540  0.81574534     0.02400
C1916       C  0.21595627  0.26571575  0.79329106    -0.04400
C1917       C  0.19519734  0.26080784  0.77984809    -0.00600
C1918       C  0.17219983  0.26476635  0.78970279    -0.03200
C1919       C  0.18802561  0.29193529  0.84852004     0.36100
C1920       C  0.19754924  0.25168037  0.75584349     0.39700
C1921       C  0.23469547  0.28161254  0.82979897     0.38800
C1922       C  0.15090676  0.25809083  0.77665618     0.35800
C1923       C  0.14136288  0.31689000  0.81024239     0.36400
C1924       C  0.10492426  0.23691067  0.86078149     0.39700
N1925       N  0.25136195  0.28553618  0.84128658    -0.38400
N1926       N  0.18593547  0.30057128  0.86703932    -0.40000
N1927       N  0.19953393  0.24454730  0.73666500    -0.37700
N1928       N  0.13390123  0.25264300  0.76633704    -0.40100
N1929       N  0.16320228  0.21826315  0.84049601    -0.39900
N1930       N  0.09717234  0.22039009  0.87015431    -0.37500
N1931       N  0.08811134  0.33895176  0.83897731    -0.38600
N1932       N  0.14868272  0.33269892  0.79938726    -0.40200
C1933       C  0.05136027  0.66299366  0.96908801    -0.05200
C1934       C  0.07040298  0.67463587  0.98051319     0.09000
C1935       C  0.09014569  0.68289522  0.96700753    -0.02500
C1936       C  0.09056327  0.68014916  0.94209248    -0.00800
C1937       C  0.07134464  0.66861910  0.93044777    -0.04400
C1938       C  0.05189952  0.65976608  0.94425367     0.02600
C1939       C  0.06929375  0.67877193  0.00676141     0.09400
C1940       C  0.10993100  0.69457427  0.97880206     0.35300
C1941       C  0.03249140  0.64691172  0.93312636     0.38800
C1942       C  0.07211865  0.65979205  0.02275821    -0.04800
C1943       C  0.07020970  0.66363487  0.04743052     0.02400
C1944       C  0.06634772  0.68658506  0.05628934    -0.04400
C1945       C  0.06379043  0.70561160  0.04034720    -0.00600
C1946       C  0.06489876  0.70166144  0.01563687    -0.03200
C1947       C  0.07693754  0.63628010  0.01381951     0.36100
C1948       C  0.06078848  0.72938728  0.04924862     0.39700
C1949       C  0.07136649  0.64381559  0.06368789     0.38800
C1950       C  0.06151175  0.72116460  0.99928770     0.35800
C1951       C  0.03100152  0.65452664  0.98295633     0.36400
C1952       C  0.11040965  0.69017266  0.92856663     0.39700
N1953       N  0.07194904  0.62791913  0.07657226    -0.38400
N1954       N  0.08066873  0.61749001  0.00672408    -0.40000
N1955       N  0.05867975  0.74855288  0.05591875    -0.37700
N1956       N  0.05892130  0.73670456  0.98621360    -0.40100
N1957       N  0.12561463  0.70401763  0.98820573    -0.39900
N1958       N  0.12627408  0.69816226  0.91784040    -0.37500
N1959       N  0.01694346  0.63671020  0.92431791    -0.38600
N1960       N  0.01487542  0.64767965  0.99409520    -0.40200
C1961       C  0.93594288  0.70045792  0.16357833    -0.05200
C1962       C  0.95522702  0.71563718  0.16872219     0.09000
C1963       C  0.95213138  0.73394942  0.18545688    -0.02500
C1964       C  0.92986822  0.73681011  0.19729595    -0.00800
C1965       C  0.91088643  0.72106189  0.19274457    -0.04400
C1966       C  0.91394652  0.70292764  0.17577546     0.02600
C1967       C  0.97880480  0.71199006  0.15644336     0.09400
C1968       C  0.97195192  0.74958174  0.19072106     0.35300
C1969       C  0.89437791  0.68686998  0.17062775     0.38800
C1970       C  0.98554406  0.72660939  0.13726847    -0.04800
C1971       C  0.00708295  0.72221835  0.12466046     0.02400
C1972       C  0.02167596  0.70274484  0.13075900    -0.04400
C1973       C  0.01488552  0.68816420  0.15009599    -0.00600
C1974       C  0.99364576  0.69293512  0.16302792    -0.03200
C1975       C  0.97008258  0.74602799  0.13037693     0.36100
C1976       C  0.02936103  0.66779680  0.15630395     0.39700
C1977       C  0.01453352  0.73842682  0.10612646     0.38800
C1978       C  0.98683684  0.67807666  0.18298773     0.35800
C1979       C  0.93876964  0.68230270  0.14561652     0.36400
C1980       C  0.92673934  0.75531829  0.21481756     0.39700
N1981       N  0.02007800  0.75184138  0.09160249    -0.38400
N1982       N  0.95768880  0.76149157  0.12496759    -0.40000
N1983       N  0.04093549  0.65156643  0.16120072    -0.37700
N1984       N  0.98133221  0.66623083  0.19887909    -0.40100
N1985       N  0.98773555  0.76211220  0.19491254    -0.39900
N1986       N  0.92405223  0.77001803  0.22882929    -0.37500
N1987       N  0.87886368  0.67399227  0.16650596    -0.38600
N1988       N  0.94104951  0.66785059  0.13128553    -0.40200
C1989       C  0.18406136  0.68149747  0.18705398    -0.05200
C1990       C  0.17764857  0.69507519  0.16709051     0.09000
C1991       C  0.19365294  0.71211419  0.15796458    -0.02500
C1992       C  0.21582805  0.71597370  0.16908196    -0.00800
C1993       C  0.22178944  0.70336722  0.18991279    -0.04400
C1994       C  0.20602118  0.68575902  0.19862178     0.02600
C1995       C  0.15347769  0.69248913  0.15623340     0.09400
C1996       C  0.18693592  0.72612373  0.13745191     0.35300
C1997       C  0.21171465  0.67285276  0.22011946     0.38800
C1998       C  0.13525119  0.70882402  0.16193188    -0.04800
C1999       C  0.11331597  0.70839661  0.14970503     0.02400
C2000       C  0.10905607  0.69089054  0.13230226    -0.04400
C2001       C  0.12699624  0.67372318  0.12759724    -0.00600
C2002       C  0.14929978  0.67483171  0.13923496    -0.03200
C2003       C  0.13935230  0.72641988  0.18013610     0.36100
C2004       C  0.12258930  0.65454532  0.11123995     0.39700
C2005       C  0.09577000  0.72685021  0.15426344     0.38800
C2006       C  0.16819825  0.65809371  0.13343657     0.35800
C2007       C  0.16766883  0.66366882  0.19602909     0.36400
C2008       C  0.23267798  0.73267233  0.15877199     0.39700
N2009       N  0.08178366  0.74157558  0.15782289    -0.38400
N2010       N  0.14264313  0.74038602  0.19470261    -0.40000
N2011       N  0.11960932  0.63895160  0.09839367    -0.37700
N2012       N  0.18331433  0.64479906  0.12879934    -0.40100
N2013       N  0.18140528  0.73739560  0.12123257    -0.39900
N2014       N  0.24608032  0.74589389  0.15034918    -0.37500
N2015       N  0.21608519  0.66254199  0.23731286    -0.38600
N2016       N  0.15453968  0.64942302  0.20304826    -0.40200
C2017       C  0.08783761  0.99384344  0.76778943    -0.05200
C2018       C  0.07530644  0.97892900  0.75226303     0.09000
C2019       C  0.08781191  0.96209541  0.73858054    -0.02500
C2020       C  0.11293852  0.96016849  0.74030042    -0.00800
C2021       C  0.12574271  0.97511631  0.75590607    -0.04400
C2022       C  0.11298521  0.99194625  0.76970495     0.02600
C2023       C  0.04873812  0.98079465  0.75037012     0.09400
C2024       C  0.07473632  0.94685138  0.72254731     0.35300
C2025       C  0.12551072  0.00699468  0.78632767     0.38800
C2026       C  0.03852322  0.99404827  0.73183347    -0.04800
C2027       C  0.01340570  0.99528117  0.72962256     0.02400
C2028       C  0.99840703  0.98286223  0.74573299    -0.04400
C2029       C  0.00872046  0.96965808  0.76438297    -0.00600
C2030       C  0.03387512  0.96885156  0.76681055    -0.03200
C2031       C  0.05392689  0.00611238  0.71481701     0.36100
C2032       C  0.99355143  0.95727613  0.78136131     0.39700
C2033       C  0.00307270  0.00869573  0.71022121     0.38800
C2034       C  0.04461240  0.95575050  0.78618794     0.35800
C2035       C  0.07470866  0.01113938  0.78177157     0.36400
C2036       C  0.12546993  0.94325630  0.72530447     0.39700
N2037       N  0.99469203  0.01943999  0.69487263    -0.38400
N2038       N  0.06617491  0.01564997  0.70115372    -0.40000
N2039       N  0.98159122  0.94732064  0.79497196    -0.37700
N2040       N  0.05335751  0.94547477  0.80165642    -0.40100
N2041       N  0.06434419  0.93472817  0.70971996    -0.39900
N2042       N  0.13541629  0.92968900  0.71342142    -0.37500
N2043       N  0.13548095  0.01904847  0.79954984    -0.38600
N2044       N  0.06410107  0.02486215  0.79288184    -0.40200
C2045       C  0.23008968  0.84322627  0.73262644    -0.05200
C2046       C  0.23904596  0.86396742  0.74298188     0.09000
C2047       C  0.26266367  0.86460576  0.75182082    -0.02500
C2048       C  0.27686044  0.84410089  0.75164751    -0.00800
C2049       C  0.26738955  0.82290951  0.74261705    -0.04400
C2050       C  0.24429895  0.82269612  0.73236203     0.02600
C2051       C  0.22369137  0.88530879  0.74499409     0.09400
C2052       C  0.27222545  0.88644038  0.76118896     0.35300
C2053       C  0.23550013  0.80161234  0.72080078     0.38800
C2054       C  0.21201329  0.89041063  0.76675097    -0.04800
C2055       C  0.20011882  0.91209483  0.76979355     0.02400
C2056       C  0.19978822  0.92855374  0.75102409    -0.04400
C2057       C  0.21043612  0.92294913  0.72888263    -0.00600
C2058       C  0.22249731  0.90134770  0.72590985    -0.03200
C2059       C  0.21267177  0.87348574  0.78609032     0.36100
C2060       C  0.20870570  0.93927321  0.70909958     0.39700
C2061       C  0.18891613  0.91783739  0.79244081     0.38800
C2062       C  0.23406797  0.89572115  0.70341701     0.35800
C2063       C  0.20633769  0.84308272  0.72220817     0.36400
C2064       C  0.30092292  0.84474112  0.76134632     0.39700
N2065       N  0.18000522  0.92253304  0.81048669    -0.38400
N2066       N  0.21320074  0.85994963  0.80148184    -0.40000
N2067       N  0.20723703  0.95223734  0.69328164    -0.37700
N2068       N  0.24329422  0.89111997  0.68550004    -0.40100
N2069       N  0.27972862  0.90394355  0.76855590    -0.39900
N2070       N  0.32013599  0.84543443  0.76902150    -0.37500
N2071       N  0.22848079  0.78495014  0.71130498    -0.38600
N2072       N  0.18746235  0.84295684  0.71373121    -0.40200
C2073       C  0.23671729  0.09770262  0.77012060    -0.05200
C2074       C  0.24365425  0.08003632  0.75398782     0.09000
C2075       C  0.26297210  0.08388177  0.73819410    -0.02500
C2076       C  0.27493373  0.10577653  0.73790271    -0.00800
C2077       C  0.26686625  0.12447871  0.75287669    -0.04400
C2078       C  0.24814454  0.11980387  0.76964396     0.02600
C2079       C  0.23057521  0.05717520  0.75389258     0.09400
C2080       C  0.27051714  0.06512215  0.72225540     0.35300
C2081       C  0.24108770  0.13708560  0.78738422     0.38800
C2082       C  0.21119578  0.05390292  0.73830584    -0.04800
C2083       C  0.19789251  0.03286337  0.73908117     0.02400
C2084       C  0.20416228  0.01482285  0.75527848    -0.04400
C2085       C  0.22379371  0.01807341  0.77073416    -0.00600
C2086       C  0.23687985  0.03929238  0.77009283    -0.03200
C2087       C  0.20481757  0.07234747  0.72161584     0.36100
C2088       C  0.22990389  0.00010281  0.78803657     0.39700
C2089       C  0.17789307  0.02976321  0.72298595     0.38800
C2090       C  0.25651277  0.04308920  0.78644571     0.35800
C2091       C  0.21791255  0.09291176  0.78752999     0.36400
C2092       C  0.29573575  0.10843195  0.72239580     0.39700
N2093       N  0.16181710  0.02728047  0.71032260    -0.38400
N2094       N  0.19971953  0.08701641  0.70826311    -0.40000
N2095       N  0.23480107  0.98583078  0.80189605    -0.37700
N2096       N  0.27210107  0.04636232  0.79950888    -0.40100
N2097       N  0.27643886  0.05012037  0.70957575    -0.39900
N2098       N  0.31259834  0.11005308  0.71030913    -0.37500
N2099       N  0.23518490  0.15051742  0.80175382    -0.38600
N2100       N  0.20309733  0.08900353  0.80154628    -0.40200
C2101       C  0.02943620  0.99745391  0.27873532    -0.05200
C2102       C  0.04305233  0.97792097  0.28609708     0.09000
C2103       C  0.03139239  0.95747561  0.29440901    -0.02500
C2104       C  0.00604369  0.95630831  0.29491464    -0.00800
C2105       C  0.99208666  0.97559083  0.28662423    -0.04400
C2106       C  0.00416071  0.99623560  0.27847969     0.02600
C2107       C  0.06980699  0.97865944  0.28414117     0.09400
C2108       C  0.04563780  0.93774464  0.30277798     0.35300
C2109       C  0.99093940  0.01625985  0.26915301     0.38800
C2110       C  0.08377727  0.98531886  0.30380466    -0.04800
C2111       C  0.10898884  0.98687178  0.30150668     0.02400
C2112       C  0.12029928  0.98121562  0.27968466    -0.04400
C2113       C  0.10633550  0.97379206  0.26027266    -0.00600
C2114       C  0.08111599  0.97296553  0.26236040    -0.03200
C2115       C  0.07216545  0.99023568  0.32643671     0.36100
C2116       C  0.11787786  0.96697458  0.23811257     0.39700
C2117       C  0.12333532  0.99340621  0.32183980     0.38800
C2118       C  0.06672890  0.96633001  0.24206505     0.35800
C2119       C  0.04156795  0.01901486  0.27164475     0.36400
C2120       C  0.99462910  0.93545759  0.30475661     0.39700
N2121       N  0.13471335  0.99849413  0.33815983    -0.38400
N2122       N  0.06286825  0.99395223  0.34452804    -0.40000
N2123       N  0.12692283  0.96132551  0.22042116    -0.37700
N2124       N  0.05525921  0.96115172  0.22583740    -0.40100
N2125       N  0.05707922  0.92211349  0.30955958    -0.39900
N2126       N  0.98569609  0.91875690  0.31266067    -0.37500
N2127       N  0.98049629  0.03232169  0.26181959    -0.38600
N2128       N  0.05118482  0.03629080  0.26621549    -0.40200
C2129       C  0.91290003  0.89207078  0.26197881    -0.05200
C2130       C  0.89391353  0.88584254  0.27749850     0.09000
C2131       C  0.88547221  0.90225489  0.29440919    -0.02500
C2132       C  0.89628768  0.92468290  0.29615173    -0.00800
C2133       C  0.91576628  0.93084454  0.28096582    -0.04400
C2134       C  0.92367495  0.91448710  0.26355005     0.02600
C2135       C  0.88230854  0.86218069  0.27528830     0.09400
C2136       C  0.86575442  0.89587496  0.31016915     0.35300
C2137       C  0.94233297  0.92091492  0.24656984     0.38800
C2138       C  0.89277015  0.84214199  0.28595383    -0.04800
C2139       C  0.88301381  0.81954740  0.28196825     0.02400
C2140       C  0.86291841  0.81691114  0.26703884    -0.04400
C2141       C  0.85169207  0.83715492  0.25748037    -0.00600
C2142       C  0.86134754  0.85969204  0.26163340    -0.03200
C2143       C  0.91360012  0.84483616  0.30100411     0.36100
C2144       C  0.82967392  0.83491564  0.24402119     0.39700
C2145       C  0.89396140  0.79903598  0.29285007     0.38800
C2146       C  0.84967047  0.88041231  0.25193899     0.35800
C2147       C  0.92126481  0.87533412  0.24425368     0.36400
C2148       C  0.88769495  0.94107031  0.31407292     0.39700
N2149       N  0.90273344  0.78275603  0.30166636    -0.38400
N2150       N  0.93018577  0.84696522  0.31307492    -0.40000
N2151       N  0.81203356  0.83322553  0.23341390    -0.37700
N2152       N  0.84026331  0.89697287  0.24438473    -0.40100
N2153       N  0.85000240  0.89070853  0.32268460    -0.39900
N2154       N  0.88077006  0.95419007  0.32830260    -0.37500
N2155       N  0.95714615  0.92599011  0.23293656    -0.38600
N2156       N  0.92793944  0.86194203  0.23017084    -0.40200
C2157       C  0.88763966  0.04740640  0.27671573    -0.05200
C2158       C  0.89698786  0.06458745  0.29221712     0.09000
C2159       C  0.91470181  0.05816478  0.30875385    -0.02500
C2160       C  0.92395108  0.03502642  0.30900880    -0.00800
C2161       C  0.91533485  0.01790280  0.29282753    -0.04400
C2162       C  0.89651619  0.02407635  0.27720130     0.02600
C2163       C  0.88881279  0.08970311  0.29042520     0.09400
C2164       C  0.92380235  0.07561367  0.32519031     0.35300
C2165       C  0.88704772  0.00691120  0.26067876     0.38800
C2166       C  0.86604933  0.09644031  0.29934067    -0.04800
C2167       C  0.85756914  0.11964276  0.29592673     0.02400
C2168       C  0.87188657  0.13633766  0.28363203    -0.04400
C2169       C  0.89505407  0.12975095  0.27541604    -0.00600
C2170       C  0.90352304  0.10656399  0.27894857    -0.03200
C2171       C  0.85112482  0.07921957  0.31149941     0.36100
C2172       C  0.91010856  0.14672291  0.26301211     0.39700
C2173       C  0.83340967  0.12579321  0.30361739     0.38800
C2174       C  0.92721583  0.09983228  0.27032563     0.35800
C2175       C  0.86954861  0.05405524  0.25952758     0.36400
C2176       C  0.94252455  0.02900886  0.32595174     0.39700
N2177       N  0.81407377  0.13062123  0.30961737    -0.38400
N2178       N  0.83927098  0.06535969  0.32108781    -0.40000
N2179       N  0.92214555  0.16015002  0.25300964    -0.37700
N2180       N  0.94614794  0.09436646  0.26363686    -0.40100
N2181       N  0.93111755  0.08956264  0.33822918    -0.39900
N2182       N  0.95747178  0.02429797  0.33933336    -0.37500
N2183       N  0.87936131  0.99325063  0.24753536    -0.38600
N2184       N  0.85515853  0.05942456  0.24580626    -0.40200
C2185       C  0.84210072  0.00300898  0.02521391    -0.05200
C2186       C  0.82758269  0.98890818  0.01063252     0.09000
C2187       C  0.81071609  0.99955123  0.99542937    -0.02500
C2188       C  0.80928604  0.02429334  0.99384048    -0.00800
C2189       C  0.82493617  0.03854243  0.00732730    -0.04400
C2190       C  0.84093830  0.02774724  0.02349150     0.02600
C2191       C  0.83124315  0.96286740  0.00992484     0.09400
C2192       C  0.79502891  0.98494033  0.98122335     0.35300
C2193       C  0.85704465  0.04184076  0.03771753     0.38800
C2194       C  0.81541436  0.94770246  0.02219466    -0.04800
C2195       C  0.81775271  0.92307125  0.01970928     0.02400
C2196       C  0.83609851  0.91350622  0.00492410    -0.04400
C2197       C  0.85273823  0.92884859  0.99374576    -0.00600
C2198       C  0.85022919  0.95342083  0.99617124    -0.03200
C2199       C  0.79659261  0.95757780  0.03718026     0.36100
C2200       C  0.87287392  0.91942430  0.98020984     0.39700
C2201       C  0.80069204  0.90777296  0.03176788     0.38800
C2202       C  0.86709042  0.96912067  0.98434757     0.35800
C2203       C  0.85852689  0.99196085  0.04175020     0.36400
C2204       C  0.79134060  0.03501693  0.97866962     0.39700
N2205       N  0.78709634  0.89564597  0.04150933    -0.38400
N2206       N  0.78163614  0.96556502  0.04912516    -0.40000
N2207       N  0.88900030  0.91197480  0.96946422    -0.37700
N2208       N  0.88052520  0.98175001  0.97506427    -0.40100
N2209       N  0.78248060  0.97319718  0.97002903    -0.39900
N2210       N  0.77699141  0.04356521  0.96661871    -0.37500
N2211       N  0.87002412  0.05272022  0.04928954    -0.38600
N2212       N  0.87159927  0.98319000  0.05499210    -0.40200
C2213       C  0.81951157  0.16957906  0.88901237    -0.05200
C2214       C  0.82440055  0.14519976  0.88813235     0.09000
C2215       C  0.82883749  0.13419624  0.86604573    -0.02500
C2216       C  0.82727708  0.14732379  0.84482147    -0.00800
C2217       C  0.82085548  0.17141743  0.84563432    -0.04400
C2218       C  0.81751100  0.18262694  0.86782807     0.02600
C2219       C  0.82458303  0.13121389  0.91062247     0.09400
C2220       C  0.83485077  0.10933779  0.86519947     0.35300
C2221       C  0.81268625  0.20773712  0.86896047     0.38800
C2222       C  0.80271315  0.12615332  0.92250498    -0.04800
C2223       C  0.80292370  0.11492935  0.94482939     0.02400
C2224       C  0.82491768  0.10803706  0.95496143    -0.04400
C2225       C  0.84670171  0.11207198  0.94262518    -0.00600
C2226       C  0.84657699  0.12406315  0.92067651    -0.03200
C2227       C  0.78001632  0.13278289  0.91187176     0.36100
C2228       C  0.86923815  0.10420752  0.95270429     0.39700
C2229       C  0.78054234  0.11069808  0.95755620     0.38800
C2230       C  0.86905658  0.12974626  0.90875764     0.35800
C2231       C  0.81682478  0.18124149  0.91182428     0.36400
C2232       C  0.83165058  0.13587681  0.82213247     0.39700
N2233       N  0.76272369  0.10735412  0.96776729    -0.38400
N2234       N  0.76189584  0.13806472  0.90342114    -0.40000
N2235       N  0.88722481  0.09781780  0.96065458    -0.37700
N2236       N  0.88690745  0.13439226  0.89914720    -0.40100
N2237       N  0.83985403  0.08954906  0.86458986    -0.39900
N2238       N  0.83527625  0.12685984  0.80401141    -0.37500
N2239       N  0.80896926  0.22777360  0.87007181    -0.38600
N2240       N  0.81479560  0.19046161  0.93006322    -0.40200
C2241       C  0.83057661  0.18358678  0.10568514    -0.05200
C2242       C  0.82157824  0.16037051  0.10490582     0.09000
C2243       C  0.81223171  0.14977591  0.12568598    -0.02500
C2244       C  0.81220785  0.16222052  0.14728529    -0.00800
C2245       C  0.82185781  0.18522383  0.14823867    -0.04400
C2246       C  0.83081510  0.19597806  0.12736722     0.02600
C2247       C  0.82247826  0.14665994  0.08234709     0.09400
C2248       C  0.80284494  0.12595151  0.12478244     0.35300
C2249       C  0.84103652  0.21943805  0.12839066     0.38800
C2250       C  0.84407962  0.13556830  0.07523453    -0.04800
C2251       C  0.84471938  0.12168666  0.05453235     0.02400
C2252       C  0.82360100  0.11829779  0.04130485    -0.04400
C2253       C  0.80202488  0.12947935  0.04831576    -0.00600
C2254       C  0.80150462  0.14378973  0.06874245    -0.03200
C2255       C  0.86547990  0.13802399  0.08956350     0.36100
C2256       C  0.78024191  0.12578083  0.03485781     0.39700
C2257       C  0.86721424  0.11129761  0.04656176     0.38800
C2258       C  0.77932279  0.15522921  0.07607482     0.35800
C2259       C  0.83969233  0.19462577  0.08418227     0.36400
C2260       C  0.80174830  0.15153060  0.16842729     0.39700
N2261       N  0.88525540  0.10326885  0.04011670    -0.38400
N2262       N  0.88250123  0.13993402  0.10107104    -0.40000
N2263       N  0.76280807  0.12279433  0.02421951    -0.37700
N2264       N  0.76162738  0.16430824  0.08200841    -0.40100
N2265       N  0.79535591  0.10696916  0.12386871    -0.39900
N2266       N  0.79330413  0.14304514  0.18524592    -0.37500
N2267       N  0.84925310  0.23812678  0.12928578    -0.38600
N2268       N  0.84695263  0.20347035  0.06702865    -0.40200
C2269       C  0.28098135  0.00810705  0.98511535    -0.05200
C2270       C  0.26313813  0.99518412  0.99738512     0.09000
C2271       C  0.24475995  0.00707590  0.00995655    -0.02500
C2272       C  0.24421114  0.03187382  0.01030146    -0.00800
C2273       C  0.26209820  0.04484740  0.99806857    -0.04400
C2274       C  0.28046297  0.03291415  0.98543522     0.02600
C2275       C  0.26370317  0.96892471  0.99724315     0.09400
C2276       C  0.22649310  0.99368067  0.02259498     0.35300
C2277       C  0.29930628  0.04617037  0.97347890     0.38800
C2278       C  0.27709097  0.95669371  0.01441707    -0.04800
C2279       C  0.27712548  0.93186601  0.01480585     0.02400
C2280       C  0.26416685  0.91900307  0.99745787    -0.04400
C2281       C  0.25049700  0.93154176  0.98040266    -0.00600
C2282       C  0.25022808  0.95638005  0.98042959    -0.03200
C2283       C  0.29093221  0.96979874  0.03168731     0.36100
C2284       C  0.23592280  0.91907922  0.96326778     0.39700
C2285       C  0.29082276  0.91988054  0.03305208     0.38800
C2286       C  0.23586910  0.96919362  0.96329208     0.35800
C2287       C  0.29999871  0.99583847  0.97238538     0.36400
C2288       C  0.22494230  0.04400824  0.02281915     0.39700
N2289       N  0.30154822  0.91053530  0.04788060    -0.38400
N2290       N  0.30202980  0.98027127  0.04537874    -0.40000
N2291       N  0.22428325  0.90924761  0.94953318    -0.37700
N2292       N  0.22438012  0.97954102  0.94975935    -0.40100
N2293       N  0.21198601  0.98287931  0.03263743    -0.39900
N2294       N  0.20954082  0.05365047  0.03278940    -0.37500
N2295       N  0.31429162  0.05686540  0.96402538    -0.38600
N2296       N  0.31522573  0.98609947  0.96225222    -0.40200
C2297       C  0.26000490  0.81317770  0.92502043    -0.05200
C2298       C  0.27927261  0.81899936  0.90966530     0.09000
C2299       C  0.29458670  0.83791132  0.91538203    -0.02500
C2300       C  0.29056269  0.85106693  0.93629230    -0.00800
C2301       C  0.27163406  0.84487389  0.95202535    -0.04400
C2302       C  0.25618644  0.82605453  0.94615441     0.02600
C2303       C  0.28411552  0.80456784  0.88790349     0.09400
C2304       C  0.31511471  0.84315919  0.90021839     0.35300
C2305       C  0.23605633  0.82021431  0.96161364     0.38800
C2306       C  0.27313872  0.81034136  0.86620110    -0.04800
C2307       C  0.27889709  0.79757851  0.84538169     0.02400
C2308       C  0.29506937  0.77817335  0.84630106    -0.04400
C2309       C  0.30489949  0.77168320  0.86857426    -0.00600
C2310       C  0.29971026  0.78505844  0.88912469    -0.03200
C2311       C  0.25547792  0.82916331  0.86546475     0.36100
C2312       C  0.31928402  0.75051503  0.87092447     0.39700
C2313       C  0.26839959  0.80493442  0.82302970     0.38800
C2314       C  0.30995359  0.77848415  0.91183522     0.35800
C2315       C  0.24454350  0.79347985  0.91930819     0.36400
C2316       C  0.30646656  0.87045208  0.94200413     0.39700
N2317       N  0.25987935  0.81083051  0.80529093    -0.38400
N2318       N  0.24113185  0.84393973  0.86494881    -0.40000
N2319       N  0.33053721  0.73354738  0.87341264    -0.37700
N2320       N  0.31792545  0.77334122  0.93005279    -0.40100
N2321       N  0.33165878  0.84716335  0.88828170    -0.39900
N2322       N  0.31902733  0.88600146  0.94657289    -0.37500
N2323       N  0.21993507  0.81557376  0.97387838    -0.38600
N2324       N  0.23233878  0.77767050  0.91471820    -0.40200
C2325       C  0.29908538  0.83182411  0.07159884    -0.05200
C2326       C  0.27942401  0.82167670  0.08389033     0.09000
C2327       C  0.25626548  0.82251243  0.07384406    -0.02500
C2328       C  0.25273243  0.83368559  0.05174341    -0.00800
C2329       C  0.27242104  0.84356411  0.03939277    -0.04400
C2330       C  0.29563704  0.84245321  0.04923130     0.02600
C2331       C  0.28317295  0.80973280  0.10728362     0.09400
C2332       C  0.23609172  0.81198447  0.08639229     0.35300
C2333       C  0.31594699  0.85233832  0.03630592     0.38800
C2334       C  0.27685708  0.82121244  0.12868315    -0.04800
C2335       C  0.28065054  0.80995733  0.15075364     0.02400
C2336       C  0.29068705  0.78702537  0.15147847    -0.04400
C2337       C  0.29629493  0.77535086  0.12989483    -0.00600
C2338       C  0.29280596  0.78677101  0.10795097    -0.03200
C2339       C  0.26665769  0.84473710  0.12786617     0.36100
C2340       C  0.30475083  0.75114515  0.13014027     0.39700
C2341       C  0.27489878  0.82233456  0.17262535     0.38800
C2342       C  0.29904689  0.77485610  0.08594154     0.35800
C2343       C  0.32275176  0.83172557  0.08220895     0.36400
C2344       C  0.22881203  0.83542764  0.04186989     0.39700
N2345       N  0.27026513  0.83230276  0.19000732    -0.38400
N2346       N  0.25843122  0.86345628  0.12699656    -0.40000
N2347       N  0.31130588  0.73178737  0.13032794    -0.37700
N2348       N  0.30411702  0.76543216  0.06837262    -0.40100
N2349       N  0.22005768  0.80360768  0.09653370    -0.39900
N2350       N  0.20973053  0.83696222  0.03399090    -0.37500
N2351       N  0.33208805  0.86018780  0.02589207    -0.38600
N2352       N  0.34161910  0.83176893  0.09070549    -0.40200
loop_ 
_geom_bond_atom_site_label_1 
_geom_bond_atom_site_label_2 
_geom_bond_distance 
_geom_bond_site_symmetry_2 
_ccdc_geom_bond_type 
C1            N2   1.359       .  A
C1            N6   1.359       .  A
C1         C2301   1.485       .  S
N2            C3   1.357   1_556  A
C3            N4   1.355       .  A
C3         C2329   1.475       .  S
N4            C5   1.357   1_554  A
C5            N6   1.360       .  A
C5         C2280   1.494       .  S
C7            N8   1.357       .  A
C7           N12   1.355   1_554  A
C7         C2252   1.473       .  S
N8            C9   1.358       .  A
C9           N10   1.359   1_554  A
C9         C2189   1.486       .  S
N10          C11   1.356       .  A
C11          N12   1.356       .  A
C11        C2224   1.473       .  S
C13          N14   1.362       .  A
C13          N18   1.364       .  A
C13        C2133   1.494       .  S
N14          C15   1.359       .  A
C15          N16   1.353       .  A
C15        C2105   1.499       .  S
N16          C17   1.353       .  A
C17          N18   1.361       .  A
C17        C2161   1.493   1_565  S
C19          N20   1.357       .  A
C19          N24   1.357       .  A
C19        C2084   1.480   1_565  S
N20          C21   1.356       .  A
C21          N22   1.353       .  A
C21        C2056   1.469       .  S
N22          C23   1.356       .  A
C23          N24   1.356       .  A
C23        C2021   1.486       .  S
C25          N26   1.357       .  A
C25          N30   1.356       .  A
C25        C2000   1.487       .  S
N26          C27   1.358       .  A
C27          N28   1.360       .  A
C27        C1944   1.477       .  S
N28          C29   1.360       .  A
C29          N30   1.355       .  A
C29        C1972   1.483       .  S
C31          N32   1.361       .  A
C31          N36   1.357       .  A
C31        C1881   1.490       .  S
N32          C33   1.360       .  A
C33          N34   1.358       .  A
C33        C1909   1.478       .  S
N34          C35   1.357       .  A
C35          N36   1.358       .  A
C35        C1860   1.493       .  S
C37          N38   1.354   1_554  A
C37          N42   1.358       .  A
C37        C1825   1.481       .  S
N38          C39   1.353       .  A
C39          N40   1.357       .  A
C39        C1797   1.473       .  S
N40          C41   1.361   1_556  A
C41          N42   1.359       .  A
C41        C2196   1.488       .  S
C43          N44   1.360   1_556  A
C43          N48   1.359       .  A
C43        C1748   1.490       .  S
N44          C45   1.358       .  A
C45          N46   1.354       .  A
C45        C1776   1.471       .  S
N46          C47   1.354   1_554  A
C47          N48   1.356       .  A
C47        C2273   1.477       .  S
C49          N50   1.356       .  A
C49          N54   1.358       .  A
C49        C1685   1.487       .  S
N50          C51   1.353   1_565  A
C51          N52   1.353       .  A
C51        C1713   1.470       .  S
N52          C53   1.356   1_545  A
C53          N54   1.357       .  A
C53        C2028   1.477       .  S
C55          N56   1.360   1_545  A
C55          N60   1.361       .  A
C55        C1664   1.498       .  S
N56          C57   1.355       .  A
C57          N58   1.354       .  A
C57        C1636   1.476       .  S
N58          C59   1.357       .  A
C59          N60   1.361   1_565  A
C59        C2112   1.477       .  S
C61          N62   1.357       .  A
C61          N66   1.358       .  A
C61        C1573   1.483       .  S
N62          C63   1.359       .  A
C63          N64   1.359       .  A
C63        C1937   1.494       .  S
N64          C65   1.358       .  A
C65          N66   1.360       .  A
C65        C1608   1.488       .  S
C67          N68   1.355       .  A
C67          N72   1.355       .  A
C67        C1545   1.471       .  S
N68          C69   1.357       .  A
C69          N70   1.360       .  A
C69        C1517   1.487       .  S
N70          C71   1.360       .  A
C71          N72   1.357       .  A
C71        C1853   1.492       .  S
C73          N74   1.356       .  A
C73          N78   1.355       .  A
C73        C1496   1.477       .  S
N74          C75   1.357       .  A
C75          N76   1.359       .  A
C75        C1433   1.480       .  S
N76          C77   1.358       .  A
C77          N78   1.355       .  A
C77        C1461   1.472       .  S
C79          N80   1.360       .  A
C79          N84   1.359       .  A
C79        C1412   1.480       .  S
N80          C81   1.360       .  A
C81          N82   1.354       .  A
C81        C1356   1.483       .  S
N82          C83   1.354       .  A
C83          N84   1.359       .  A
C83        C1377   1.486       .  S
C85          N86   1.359       .  A
C85          N90   1.362       .  A
C85        C1321   1.487       .  S
N86          C87   1.356       .  A
C87          N88   1.354       .  A
C87        C1265   1.498       .  S
N88          C89   1.355       .  A
C89          N90   1.362       .  A
C89        C1293   1.498       .  S
Zr91         O92   2.439       .  S
Zr91         O93   2.425       .  S
Zr91         O94   2.431       .  S
Zr91         O97   2.414       .  S
Zr91         O99   2.374       .  S
Zr91        O100   2.382       .  S
Zr91        O101   2.399       .  S
Zr91        O102   2.393       .  S
O92         H148   0.990       .  S
O92         H156   0.990       .  S
O93         C113   1.281       .  A
O94         C115   1.284       .  A
O95        Zr105   2.433       .  S
O95         C114   1.284       .  A
O96        Zr104   2.425       .  S
O96         C115   1.282       .  A
O97         C114   1.282       .  A
O98        Zr106   2.420       .  S
O98         C113   1.282       .  A
O99        Zr104   2.390       .  S
O99        Zr106   2.368       .  S
O100       Zr105   2.392       .  S
O100       Zr106   2.379       .  S
O100        H135   0.966       .  S
O101       Zr104   2.397       .  S
O101       Zr121   2.401       .  S
O101        H138   0.965       .  S
O102       Zr105   2.391       .  S
O102       Zr121   2.390       .  S
Zr103       O128   2.438       .  S
Zr103       O122   2.427       .  S
Zr103       O130   2.407       .  S
Zr103       O118   2.405       .  S
Zr103       O109   2.396       .  S
Zr103       O110   2.398       .  S
Zr103       O111   2.373       .  S
Zr103       O112   2.375       .  S
Zr104       O123   2.437       .  S
Zr104       O116   2.435       .  S
Zr104       O117   2.430       .  S
Zr104       O110   2.400       .  S
Zr104       O111   2.386       .  S
Zr105       O107   2.434       .  S
Zr105       O129   2.438       .  S
Zr105       O131   2.432       .  S
Zr105       O109   2.393       .  S
Zr105       O112   2.389       .  S
Zr106       O132   2.435       .  S
Zr106       O133   2.436       .  S
Zr106       O108   2.437       .  S
Zr106       O109   2.395       .  S
Zr106       O110   2.394       .  S
O107        H144   0.990       .  S
O108        H139   0.990       .  S
O108        H153   0.990       .  S
O110        H136   0.966       .  S
O111       Zr121   2.373       .  S
O112       Zr121   2.379       .  S
O112        H137   0.966       .  S
C113       C1741   1.477       .  S
C114       C1916   1.479       .  S
C115       C2077   1.501       .  S
O116        H152   0.990       .  S
O117        C119   1.283       .  A
O118        C119   1.279       .  A
C119       C1237   1.469       .  S
O120       Zr121   2.439       .  S
O120        H149   0.990       .  S
Zr121       O124   2.435       .  S
Zr121       O125   2.439       .  S
Zr121       O126   2.431       .  S
O122        C127   1.283       .  A
O123        H140   0.990       .  S
O123        H155   0.990       .  S
O124        H141   0.990       .  S
O125        H145   0.990       .  S
O125        H154   0.990       .  S
O126        C127   1.285       .  A
C127       C1328   1.491       .  S
O128        H147   0.990       .  S
O128        H151   0.990       .  S
O129        H143   0.990       .  S
O129        H150   0.989       .  S
O130        C134   1.280       .  A
O131        C134   1.284       .  A
O132        H142   0.990       .  S
O133        H146   0.990       .  S
C134       C1468   1.474       .  S
C157        N158   1.357       .  A
C157        N162   1.359       .  A
C157       C1188   1.480       .  S
N158        C159   1.356       .  A
C159        N160   1.357       .  A
C159       C1216   1.480       .  S
N160        C161   1.359       .  A
C161        N162   1.359       .  A
C161       C1160   1.492       .  S
C163        N164   1.358       .  A
C163        N168   1.357       .  A
C163       C1125   1.474       .  S
N164        C165   1.358       .  A
C165        N166   1.355       .  A
C165       C1097   1.481       .  S
N166        C167   1.356       .  A
C167        N168   1.357       .  A
C167       C1244   1.477       .  S
Zr169       O170   2.441       .  S
Zr169       O171   2.431       .  S
Zr169       O172   2.441       .  S
Zr169       O175   2.422       .  S
Zr169       O177   2.376       .  S
Zr169       O178   2.383       .  S
Zr169       O179   2.404       .  S
Zr169       O180   2.400       .  S
O170        H226   0.990       .  S
O170        H234   0.989       .  S
O171        C191   1.282       .  A
O172        C193   1.285       .  A
O173       Zr183   2.428       .  S
O173        C192   1.284       .  A
O174       Zr182   2.431       .  S
O174        C193   1.284       .  A
O175        C192   1.282       .  A
O176       Zr184   2.412       .  S
O176        C191   1.279       .  A
O177       Zr182   2.394       .  S
O177       Zr184   2.383       .  S
O178       Zr183   2.397       .  S
O178       Zr184   2.377       .  S
O178        H213   0.967       .  S
O179       Zr182   2.396       .  S
O179       Zr199   2.391       .  S
O179        H216   0.965       .  S
O180       Zr183   2.391       .  S
O180       Zr199   2.394       .  S
Zr181       O206   2.441       .  S
Zr181       O200   2.439       .  S
Zr181       O208   2.432       .  S
Zr181       O196   2.420       .  S
Zr181       O187   2.398       .  S
Zr181       O188   2.404       .  S
Zr181       O189   2.378       .  S
Zr181       O190   2.380       .  S
Zr182       O201   2.435       .  S
Zr182       O194   2.436       .  S
Zr182       O195   2.418       .  S
Zr182       O188   2.399       .  S
Zr182       O189   2.393       .  S
Zr183       O185   2.436       .  S
Zr183       O207   2.435       .  S
Zr183       O209   2.430       .  S
Zr183       O187   2.393       .  S
Zr183       O190   2.393       .  S
Zr184       O210   2.437       .  S
Zr184       O211   2.435       .  S
Zr184       O186   2.435       .  S
Zr184       O187   2.392       .  S
Zr184       O188   2.389       .  S
O185        H222   0.990       .  S
O186        H217   0.990       .  S
O186        H231   0.989       .  S
O188        H214   0.965       .  S
O189       Zr199   2.372       .  S
O190       Zr199   2.380       .  S
O190        H215   0.966       .  S
C191       C2217   1.479       .  S
C192       C1720   1.481       .  S
C193       C1888   1.490       .  S
O194        H230   0.990       .  S
O195        C197   1.281       .  A
O196        C197   1.282       .  A
C197       C1069   1.465       .  S
O198       Zr199   2.440       .  S
O198        H227   0.990       .  S
Zr199       O202   2.437       .  S
Zr199       O203   2.433       .  S
Zr199       O204   2.428       .  S
O200        C205   1.285       .  A
O201        H218   0.990       .  S
O201        H233   0.990       .  S
O202        H219   0.990       .  S
O203        H223   0.990       .  S
O203        H232   0.989       .  S
O204        C205   1.284       .  A
C205       C1209   1.495       .  S
O206        H225   0.990       .  S
O206        H229   0.990       .  S
O207        H221   0.990       .  S
O207        H228   0.990       .  S
O208        C212   1.282       .  A
O209        C212   1.283       .  A
O210        H220   0.990       .  S
O211        H224   0.990       .  S
C212       C1132   1.476       .  S
C235        N236   1.360       .  A
C235        N240   1.357       .  A
C235       C1041   1.494       .  S
N236        C237   1.362       .  A
C237        N238   1.360       .  A
C237       C1013   1.503       .  S
N238        C239   1.357       .  A
C239        N240   1.355       .  A
C239       C1272   1.476       .  S
Zr241       O242   2.440       .  S
Zr241       O243   2.434       .  S
Zr241       O244   2.417       .  S
Zr241       O247   2.424       .  S
Zr241       O249   2.380       .  S
Zr241       O250   2.374       .  S
Zr241       O251   2.405       .  S
Zr241       O252   2.392       .  S
O242        H298   0.990       .  S
O242        H306   0.990       .  S
O243        C263   1.284       .  A
O244        C265   1.280       .  A
O245       Zr255   2.439       .  S
O245        C264   1.285       .  A
O246       Zr254   2.410       .  S
O246        C265   1.279       .  A
O247        C264   1.283       .  A
O248       Zr256   2.428       .  S
O248        C263   1.283       .  A
O249       Zr254   2.392       .  S
O249       Zr256   2.373       .  S
O250       Zr255   2.386       .  S
O250       Zr256   2.378       .  S
O250        H285   0.966       .  S
O251       Zr254   2.401       .  S
O251       Zr271   2.400       .  S
O251        H288   0.966       .  S
O252       Zr255   2.387       .  S
O252       Zr271   2.397       .  S
Zr253       O278   2.440       .  S
Zr253       O272   2.435       .  S
Zr253       O280   2.426       .  S
Zr253       O268   2.435       .  S
Zr253       O259   2.403       .  S
Zr253       O260   2.399       .  S
Zr253       O261   2.375       .  S
Zr253       O262   2.381       .  S
Zr254       O273   2.436       .  S
Zr254       O266   2.434       .  S
Zr254       O267   2.429       .  S
Zr254       O260   2.387       .  S
Zr254       O261   2.390       .  S
Zr255       O257   2.434       .  S
Zr255       O279   2.435       .  S
Zr255       O281   2.417       .  S
Zr255       O259   2.398       .  S
Zr255       O262   2.396       .  S
Zr256       O282   2.435       .  S
Zr256       O283   2.436       .  S
Zr256       O258   2.437       .  S
Zr256       O259   2.394       .  S
Zr256       O260   2.392       .  S
O257        H294   0.990       .  S
O258        H289   0.990       .  S
O258        H303   0.990       .  S
O260        H286   0.966       .  S
O261       Zr271   2.381       .  S
O262       Zr271   2.377       .  S
O262        H287   0.966       .  S
C263       C1048   1.499       .  S
C264        C992   1.485       .  S
C265       C1489   1.465       .  S
O266        H302   0.990       .  S
O267        C269   1.283       .  A
O268        C269   1.285       .  A
C269       C1601   1.483       .  S
O270       Zr271   2.442       .  S
O270        H299   0.990       .  S
Zr271       O274   2.436       .  S
Zr271       O275   2.440       .  S
Zr271       O276   2.436       .  S
O272        C277   1.285       .  A
O273        H290   0.990       .  S
O273        H305   0.990       .  S
O274        H291   0.989       .  S
O275        H295   0.990       .  S
O275        H304   0.990       .  S
O276        C277   1.285       .  A
C277       C2308   1.500       .  S
O278        H297   0.990       .  S
O278        H301   0.990       .  S
O279        H293   0.990       .  S
O279        H300   0.990       .  S
O280        C284   1.283       .  A
O281        C284   1.282       .  A
O282        H292   0.990       .  S
O283        H296   0.990       .  S
C284       C2049   1.473       .  S
C307        N308   1.355       .  A
C307        N312   1.356       .  A
C307       C1076   1.473       .  S
N308        C309   1.357       .  A
C309        N310   1.359       .  A
C309       C1440   1.485       .  S
N310        C311   1.357       .  A
C311        N312   1.355       .  A
C311        C957   1.474       .  S
C313        N314   1.360       .  A
C313        N318   1.356       .  A
C313        C929   1.482       .  S
N314        C315   1.359       .  A
C315        N316   1.357       .  A
C315        C985   1.482       .  S
N316        C317   1.358       .  A
C317        N318   1.354       .  A
C317        C901   1.480       .  S
C319        N320   1.355       .  A
C319        N324   1.361       .  A
C319        C873   1.494       .  S
N320        C321   1.350       .  A
C321        N322   1.354       .  A
C321        C845   1.471       .  S
N322        C323   1.360       .  A
C323        N324   1.361       .  A
C323       C1153   1.487       .  S
Zr325       O326   2.443       .  S
Zr325       O327   2.438       .  S
Zr325       O328   2.439       .  S
Zr325       O331   2.425       .  S
Zr325       O333   2.377       .  S
Zr325       O334   2.386       .  S
Zr325       O335   2.410       .  S
Zr325       O336   2.402       .  S
O326        H382   0.991       .  S
O326        H390   0.990       .  S
O327        C347   1.284       .  A
O328        C349   1.283       .  A
O329       Zr339   2.433       .  S
O329        C348   1.285       .  A
O330       Zr338   2.437       .  S
O330        C349   1.284       .  A
O331        C348   1.283       .  A
O332       Zr340   2.403       .  S
O332        C347   1.277       .  A
O333       Zr338   2.394       .  S
O333       Zr340   2.386       .  S
O334       Zr339   2.398       .  S
O334       Zr340   2.379       .  S
O334        H369   0.966       .  S
O335       Zr338   2.401       .  S
O335       Zr355   2.396       .  S
O335        H372   0.965       .  S
O336       Zr339   2.390       .  S
O336       Zr355   2.388       .  S
Zr337       O362   2.441       .  S
Zr337       O356   2.432       .  S
Zr337       O364   2.437       .  S
Zr337       O352   2.420       .  S
Zr337       O343   2.395       .  S
Zr337       O344   2.402       .  S
Zr337       O345   2.380       .  S
Zr337       O346   2.383       .  S
Zr338       O357   2.436       .  S
Zr338       O350   2.432       .  S
Zr338       O351   2.429       .  S
Zr338       O344   2.400       .  S
Zr338       O345   2.391       .  S
Zr339       O341   2.435       .  S
Zr339       O363   2.435       .  S
Zr339       O365   2.437       .  S
Zr339       O343   2.397       .  S
Zr339       O346   2.394       .  S
Zr340       O366   2.436       .  S
Zr340       O367   2.435       .  S
Zr340       O342   2.435       .  S
Zr340       O343   2.388       .  S
Zr340       O344   2.387       .  S
O341        H378   0.990       .  S
O342        H373   0.990       .  S
O342        H387   0.990       .  S
O344        H370   0.965       .  S
O345       Zr355   2.374       .  S
O346       Zr355   2.380       .  S
O346        H371   0.966       .  S
C347        C852   1.481       .  S
C348        C964   1.484       .  S
C349        C936   1.485       .  S
O350        H386   0.990       .  S
O351        C353   1.284       .  A
O352        C353   1.282       .  A
C353       C1692   1.488       .  S
O354       Zr355   2.439       .  S
O354        H383   0.990       .  S
Zr355       O358   2.437       .  S
Zr355       O359   2.438       .  S
Zr355       O360   2.416       .  S
O356        C361   1.282       .  A
O357        H374   0.990       .  S
O357        H389   0.989       .  S
O358        H375   0.989       .  S
O359        H379   0.990       .  S
O359        H388   0.990       .  S
O360        C361   1.280       .  A
C361       C1804   1.474       .  S
O362        H381   0.990       .  S
O362        H385   0.990       .  S
O363        H377   0.990       .  S
O363        H384   0.990       .  S
O364        C368   1.284       .  A
O365        C368   1.285       .  A
O366        H376   0.990       .  S
O367        H380   0.990       .  S
C368       C1580   1.489       .  S
C391        N392   1.356       .  A
C391        N396   1.355       .  A
C391        C817   1.473       .  S
N392        C393   1.359       .  A
C393        N394   1.359       .  A
C393       C1104   1.496       .  S
N394        C395   1.358       .  A
C395        N396   1.355       .  A
C395        C789   1.474       .  S
Zr397       O398   2.442       .  S
Zr397       O399   2.424       .  S
Zr397       O400   2.428       .  S
Zr397       O403   2.413       .  S
Zr397       O405   2.375       .  S
Zr397       O406   2.384       .  S
Zr397       O407   2.399       .  S
Zr397       O408   2.398       .  S
O398        H454   0.991       .  S
O398        H462   0.990       .  S
O399        C419   1.282       .  A
O400        C421   1.282       .  A
O401       Zr411   2.435       .  S
O401        C420   1.284       .  A
O402       Zr410   2.447       .  S
O402        C421   1.287       .  A
O403        C420   1.282       .  A
O404       Zr412   2.416       .  S
O404        C419   1.281       .  A
O405       Zr410   2.396       .  S
O405       Zr412   2.380       .  S
O406       Zr411   2.393       .  S
O406       Zr412   2.370       .  S
O406        H441   0.966       .  S
O407       Zr410   2.398       .  S
O407       Zr427   2.397       .  S
O407        H444   0.965       .  S
O408       Zr411   2.394       .  S
O408       Zr427   2.386       .  S
Zr409       O434   2.442       .  S
Zr409       O428   2.433       .  S
Zr409       O436   2.426       .  S
Zr409       O424   2.420       .  S
Zr409       O415   2.401       .  S
Zr409       O416   2.404       .  S
Zr409       O417   2.380       .  S
Zr409       O418   2.378       .  S
Zr410       O429   2.434       .  S
Zr410       O422   2.435       .  S
Zr410       O423   2.436       .  S
Zr410       O416   2.401       .  S
Zr410       O417   2.394       .  S
Zr411       O413   2.435       .  S
Zr411       O435   2.436       .  S
Zr411       O437   2.438       .  S
Zr411       O415   2.391       .  S
Zr411       O418   2.394       .  S
Zr412       O438   2.434       .  S
Zr412       O439   2.435       .  S
Zr412       O414   2.434       .  S
Zr412       O415   2.395       .  S
Zr412       O416   2.381       .  S
O413        H450   0.990       .  S
O414        H445   0.990       .  S
O414        H459   0.990       .  S
O416        H442   0.965       .  S
O417       Zr427   2.382       .  S
O418       Zr427   2.381       .  S
O418        H443   0.966       .  S
C419        C796   1.484       .  S
C420       C1181   1.474       .  S
C421        C761   1.487       .  S
O422        H458   0.990       .  S
O423        C425   1.285       .  A
O424        C425   1.282       .  A
C425       C2245   1.476       .  S
O426       Zr427   2.435       .  S
O426        H455   0.990       .  S
Zr427       O430   2.435       .  S
Zr427       O431   2.438       .  S
Zr427       O432   2.419       .  S
O428        C433   1.283       .  A
O429        H446   0.990       .  S
O429        H461   0.989       .  S
O430        H447   0.990       .  S
O431        H451   0.990       .  S
O431        H460   0.989       .  S
O432        C433   1.282       .  A
C433       C1524   1.490       .  S
O434        H453   0.991       .  S
O434        H457   0.991       .  S
O435        H449   0.990       .  S
O435        H456   0.989       .  S
O436        C440   1.281       .  A
O437        C440   1.285       .  A
O438        H448   0.990       .  S
O439        H452   0.990       .  S
C440       C2168   1.487       .  S
C463        N464   1.355       .  A
C463        N468   1.356       .  A
C463        C705   1.471       .  S
N464        C465   1.357       .  A
C465        N466   1.356       .  A
C465        C908   1.476       .  S
N466        C467   1.356       .  A
C467        N468   1.358       .  A
C467        C733   1.482       .  S
C469        N470   1.361       .  A
C469        N474   1.356       .  A
C469        C768   1.486       .  S
N470        C471   1.361       .  A
C471        N472   1.357       .  A
C471        C677   1.478       .  S
N472        C473   1.357       .  A
C473        N474   1.356       .  A
C473       C1349   1.489       .  S
Zr475       O476   2.443       .  S
Zr475       O477   2.438       .  S
Zr475       O478   2.450       .  S
Zr475       O481   2.417       .  S
Zr475       O483   2.378       .  S
Zr475       O484   2.385       .  S
Zr475       O485   2.404       .  S
Zr475       O486   2.407       .  S
O476        H532   0.990       .  S
O476        H540   0.990       .  S
O477        C497   1.284       .  A
O478        C499   1.286       .  A
O479       Zr489   2.433       .  S
O479        C498   1.284       .  A
O480       Zr488   2.421       .  S
O480        C499   1.281       .  A
O481        C498   1.281       .  A
O482       Zr490   2.400       .  S
O482        C497   1.278       .  A
O483       Zr488   2.403       .  S
O483       Zr490   2.385       .  S
O484       Zr489   2.390       .  S
O484       Zr490   2.380       .  S
O484        H519   0.973       .  S
O485       Zr488   2.397       .  S
O485       Zr505   2.391       .  S
O485        H522   0.964       .  S
O486       Zr489   2.389       .  S
O486       Zr505   2.391       .  S
Zr487       O512   2.441       .  S
Zr487       O506   2.425       .  S
Zr487       O514   2.423       .  S
Zr487       O502   2.432       .  S
Zr487       O493   2.393       .  S
Zr487       O494   2.405       .  S
Zr487       O495   2.373       .  S
Zr487       O496   2.387       .  S
Zr488       O507   2.434       .  S
Zr488       O500   2.430       .  S
Zr488       O501   2.427       .  S
Zr488       O494   2.403       .  S
Zr488       O495   2.384       .  S
Zr489       O491   2.435       .  S
Zr489       O513   2.436       .  S
Zr489       O515   2.430       .  S
Zr489       O493   2.394       .  S
Zr489       O496   2.396       .  S
Zr490       O516   2.435       .  S
Zr490       O517   2.436       .  S
Zr490       O492   2.437       .  S
Zr490       O493   2.388       .  S
Zr490       O494   2.376       .  S
O491        H528   0.990       .  S
O492        H523   0.990       .  S
O492        H537   0.990       .  S
O494        H520   0.964       .  S
O495       Zr505   2.376       .  S
O496       Zr505   2.381       .  S
O496        H521   0.966       .  S
C497       C1965   1.475       .  S
C498       C1832   1.472       .  S
C499       C2140   1.483       .  S
O500        H536   0.990       .  S
O501        C503   1.283       .  A
O502        C503   1.284       .  A
C503        C880   1.485       .  S
O504       Zr505   2.439       .  S
O504        H533   0.990       .  S
Zr505       O508   2.437       .  S
Zr505       O509   2.441       .  S
Zr505       O510   2.419       .  S
O506        C511   1.281       .  A
O507        H524   0.990       .  S
O507        H539   0.990       .  S
O508        H525   0.990       .  S
O509        H529   0.990       .  S
O509        H538   0.990       .  S
O510        C511   1.281       .  A
C511        C740   1.477       .  S
O512        H531   0.990       .  S
O512        H535   0.990       .  S
O513        H527   0.990       .  S
O513        H534   0.990       .  S
O514        C518   1.282       .  A
O515        C518   1.283       .  A
O516        H526   0.990       .  S
O517        H530   0.990       .  S
C518        C684   1.477       .  S
Zr541       O542   2.439       .  S
Zr541       O543   2.434       .  S
Zr541       O544   2.431       .  S
Zr541       O547   2.422       .  S
Zr541       O549   2.380       .  S
Zr541       O550   2.382       .  S
Zr541       O551   2.407       .  S
Zr541       O552   2.397       .  S
O542        H598   0.990       .  S
O542        H606   0.989       .  S
O543        C563   1.284       .  A
O544        C565   1.284       .  A
O545       Zr555   2.431       .  S
O545        C564   1.283       .  A
O546       Zr554   2.447       .  S
O546        C565   1.287       .  A
O547        C564   1.283       .  A
O548       Zr556   2.424       .  S
O548        C563   1.283       .  A
O549       Zr554   2.395       .  S
O549       Zr556   2.377       .  S
O550       Zr555   2.390       .  S
O550       Zr556   2.375       .  S
O550        H585   0.966       .  S
O551       Zr554   2.403       .  S
O551       Zr571   2.394       .  S
O551        H588   0.966       .  S
O552       Zr555   2.391       .  S
O552       Zr571   2.395       .  S
Zr553       O578   2.440       .  S
Zr553       O572   2.438       .  S
Zr553       O580   2.435       .  S
Zr553       O568   2.418       .  S
Zr553       O559   2.402       .  S
Zr553       O560   2.408       .  S
Zr553       O561   2.378       .  S
Zr553       O562   2.378       .  S
Zr554       O573   2.435       .  S
Zr554       O566   2.435       .  S
Zr554       O567   2.446       .  S
Zr554       O560   2.398       .  S
Zr554       O561   2.398       .  S
Zr555       O557   2.434       .  S
Zr555       O579   2.438       .  S
Zr555       O581   2.425       .  S
Zr555       O559   2.399       .  S
Zr555       O562   2.393       .  S
Zr556       O582   2.434       .  S
Zr556       O583   2.436       .  S
Zr556       O558   2.437       .  S
Zr556       O559   2.399       .  S
Zr556       O560   2.388       .  S
O557        H594   0.990       .  S
O558        H589   0.990       .  S
O558        H603   0.990       .  S
O560        H586   0.966       .  S
O561       Zr571   2.377       .  S
O562       Zr571   2.380       .  S
O562        H587   0.965       .  S
C563       C2336   1.489       .  S
C564       C1993   1.482       .  S
C565       C1629   1.487       .  S
O566        H602   0.990       .  S
O567        C569   1.287       .  A
O568        C569   1.281       .  A
C569        C712   1.480       .  S
O570       Zr571   2.440       .  S
O570        H599   0.990       .  S
Zr571       O574   2.437       .  S
Zr571       O575   2.436       .  S
Zr571       O576   2.429       .  S
O572        C577   1.284       .  A
O573        H590   0.990       .  S
O573        H605   0.990       .  S
O574        H591   0.990       .  S
O575        H595   0.990       .  S
O575        H604   0.989       .  S
O576        C577   1.283       .  A
C577       C1020   1.491       .  S
O578        H597   0.990       .  S
O578        H601   0.989       .  S
O579        H593   0.990       .  S
O579        H600   0.990       .  S
O580        C584   1.284       .  A
O581        C584   1.283       .  A
O582        H592   0.990       .  S
O583        H596   0.990       .  S
C584       C1405   1.488       .  S
Zr607       O608   2.440       .  S
Zr607       O609   2.435       .  S
Zr607       O610   2.420       .  S
Zr607       O613   2.405       .  S
Zr607       O615   2.375       .  S
Zr607       O616   2.379       .  S
Zr607       O617   2.400       .  S
Zr607       O618   2.399       .  S
O608        H664   0.990       .  S
O608        H672   0.990       .  S
O609        C629   1.284       .  A
O610        C631   1.281       .  A
O611       Zr621   2.443       .  S
O611        C630   1.286       .  A
O612       Zr620   2.421       .  S
O612        C631   1.282       .  A
O613        C630   1.280       .  A
O614       Zr622   2.443       .  S
O614        C629   1.287       .  A
O615       Zr620   2.396       .  S
O615       Zr622   2.376       .  S
O616       Zr621   2.392       .  S
O616       Zr622   2.372       .  S
O616        H651   0.965       .  S
O617       Zr620   2.396       .  S
O617       Zr637   2.397       .  S
O617        H654   0.966       .  S
O618       Zr621   2.397       .  S
O618       Zr637   2.391       .  S
Zr619       O644   2.439       .  S
Zr619       O638   2.428       .  S
Zr619       O646   2.420       .  S
Zr619       O634   2.430       .  S
Zr619       O625   2.400       .  S
Zr619       O626   2.399       .  S
Zr619       O627   2.377       .  S
Zr619       O628   2.379       .  S
Zr620       O639   2.436       .  S
Zr620       O632   2.434       .  S
Zr620       O633   2.430       .  S
Zr620       O626   2.397       .  S
Zr620       O627   2.391       .  S
Zr621       O623   2.434       .  S
Zr621       O645   2.435       .  S
Zr621       O647   2.452       .  S
Zr621       O625   2.395       .  S
Zr621       O628   2.390       .  S
Zr622       O648   2.433       .  S
Zr622       O649   2.435       .  S
Zr622       O624   2.433       .  S
Zr622       O625   2.400       .  S
Zr622       O626   2.394       .  S
O623        H660   0.990       .  S
O624        H655   0.990       .  S
O624        H669   0.990       .  S
O626        H652   0.966       .  S
O627       Zr637   2.379       .  S
O628       Zr637   2.376       .  S
O628        H653   0.966       .  S
C629       C1300   1.499       .  S
C630        C824   1.474       .  S
C631       C1384   1.470       .  S
O632        H668   0.990       .  S
O633        C635   1.282       .  A
O634        C635   1.284       .  A
C635       C1552   1.481       .  S
O636       Zr637   2.439       .  S
O636        H665   0.990       .  S
Zr637       O640   2.437       .  S
Zr637       O641   2.439       .  S
Zr637       O642   2.419       .  S
O638        C643   1.282       .  A
O639        H656   0.990       .  S
O639        H671   0.990       .  S
O640        H657   0.990       .  S
O641        H661   0.990       .  S
O641        H670   0.990       .  S
O642        C643   1.281       .  A
C643       C1769   1.474       .  S
O644        H663   0.989       .  S
O644        H667   0.990       .  S
O645        H659   0.989       .  S
O645        H666   0.990       .  S
O646        C650   1.283       .  A
O647        C650   1.288       .  A
O648        H658   0.990       .  S
O649        H662   0.990       .  S
C650       C1657   1.505       .  S
C673        C674   1.414       .  A
C673        C678   1.411       .  A
C673        C691   1.451       .  S
C674        C679   1.497       .  S
C674        C675   1.412       .  A
C675        C676   1.410       .  A
C675        C680   1.450       .  S
C676        C677   1.410       .  A
C676        C692   1.450       .  S
C677        C678   1.410       .  A
C678        C681   1.450       .  S
C679        C682   1.411       .  A
C679        C686   1.415       .  A
C680        N697   1.157       .  T
C681        N699   1.157       .  T
C682        C683   1.407       .  A
C682        C687   1.451       .  S
C683        C684   1.412       .  A
C683        C689   1.452       .  S
C684        C685   1.410       .  A
C685        C686   1.412       .  A
C685        C688   1.451       .  S
C686        C690   1.450       .  S
C687        N694   1.157       .  T
C688        N695   1.157       .  T
C689        N693   1.157       .  T
C690        N696   1.157       .  T
C691        N700   1.157       .  T
C692        N698   1.157       .  T
C701        C702   1.412       .  A
C701        C706   1.408       .  A
C701        C719   1.450       .  S
C702        C707   1.492       .  S
C702        C703   1.411       .  A
C703        C704   1.409       .  A
C703        C708   1.450       .  S
C704        C705   1.410       .  A
C704        C720   1.450       .  S
C705        C706   1.409       .  A
C706        C709   1.451       .  S
C707        C710   1.410       .  A
C707        C714   1.410       .  A
C708        N725   1.157       .  T
C709        N727   1.157       .  T
C710        C711   1.411       .  A
C710        C715   1.450       .  S
C711        C712   1.412       .  A
C711        C717   1.450       .  S
C712        C713   1.414       .  A
C713        C714   1.408       .  A
C713        C716   1.451       .  S
C714        C718   1.451       .  S
C715        N722   1.157       .  T
C716        N723   1.157       .  T
C717        N721   1.157       .  T
C718        N724   1.157       .  T
C719        N728   1.157       .  T
C720        N726   1.157       .  T
C729        C730   1.408       .  A
C729        C734   1.409       .  A
C729        C747   1.451       .  S
C730        C735   1.488       .  S
C730        C731   1.409       .  A
C731        C732   1.407       .  A
C731        C736   1.451       .  S
C732        C733   1.414       .  A
C732        C748   1.451       .  S
C733        C734   1.416       .  A
C734        C737   1.451       .  S
C735        C738   1.409       .  A
C735        C742   1.409       .  A
C736        N753   1.157       .  T
C737        N755   1.157       .  T
C738        C739   1.409       .  A
C738        C743   1.450       .  S
C739        C740   1.412       .  A
C739        C745   1.451       .  S
C740        C741   1.414       .  A
C741        C742   1.407       .  A
C741        C744   1.452       .  S
C742        C746   1.451       .  S
C743        N750   1.157       .  T
C744        N751   1.157       .  T
C745        N749   1.157       .  T
C746        N752   1.157       .  T
C747        N756   1.157       .  T
C748        N754   1.157       .  T
C757        C758   1.411       .  A
C757        C762   1.412       .  A
C757        C775   1.450       .  S
C758        C763   1.499       .  S
C758        C759   1.411       .  A
C759        C760   1.412       .  A
C759        C764   1.450       .  S
C760        C761   1.414       .  A
C760        C776   1.450       .  S
C761        C762   1.415       .  A
C762        C765   1.451       .  S
C763        C766   1.412       .  A
C763        C770   1.410       .  A
C764        N781   1.157       .  T
C765        N783   1.157       .  T
C766        C767   1.412       .  A
C766        C771   1.450       .  S
C767        C768   1.413       .  A
C767        C773   1.451       .  S
C768        C769   1.415       .  A
C769        C770   1.411       .  A
C769        C772   1.451       .  S
C770        C774   1.450       .  S
C771        N778   1.157       .  T
C772        N779   1.157       .  T
C773        N777   1.157       .  T
C774        N780   1.157       .  T
C775        N784   1.157       .  T
C776        N782   1.157       .  T
C785        C786   1.409       .  A
C785        C790   1.406       .  A
C785        C803   1.452       .  S
C786        C791   1.486       .  S
C786        C787   1.408       .  A
C787        C788   1.408       .  A
C787        C792   1.450       .  S
C788        C789   1.412       .  A
C788        C804   1.450       .  S
C789        C790   1.412       .  A
C790        C793   1.450       .  S
C791        C794   1.407       .  A
C791        C798   1.406       .  A
C792        N809   1.157       .  T
C793        N811   1.157       .  T
C794        C795   1.407       .  A
C794        C799   1.452       .  S
C795        C796   1.417       .  A
C795        C801   1.451       .  S
C796        C797   1.418       .  A
C797        C798   1.407       .  A
C797        C800   1.451       .  S
C798        C802   1.451       .  S
C799        N806   1.157       .  T
C800        N807   1.157       .  T
C801        N805   1.157       .  T
C802        N808   1.157       .  T
C803        N812   1.157       .  T
C804        N810   1.157       .  T
C813        C814   1.409       .  A
C813        C818   1.408       .  A
C813        C831   1.450       .  S
C814        C819   1.489       .  S
C814        C815   1.411       .  A
C815        C816   1.408       .  A
C815        C820   1.451       .  S
C816        C817   1.410       .  A
C816        C832   1.451       .  S
C817        C818   1.411       .  A
C818        C821   1.450       .  S
C819        C822   1.411       .  A
C819        C826   1.409       .  A
C820        N837   1.157       .  T
C821        N839   1.157       .  T
C822        C823   1.409       .  A
C822        C827   1.451       .  S
C823        C824   1.411       .  A
C823        C829   1.450       .  S
C824        C825   1.412       .  A
C825        C826   1.407       .  A
C825        C828   1.452       .  S
C826        C830   1.450       .  S
C827        N834   1.157       .  T
C828        N835   1.157       .  T
C829        N833   1.157       .  T
C830        N836   1.157       .  T
C831        N840   1.157       .  T
C832        N838   1.157       .  T
C841        C842   1.411       .  A
C841        C846   1.408       .  A
C841        C859   1.451       .  S
C842        C847   1.492       .  S
C842        C843   1.412       .  A
C843        C844   1.408       .  A
C843        C848   1.450       .  S
C844        C845   1.409       .  A
C844        C860   1.451       .  S
C845        C846   1.410       .  A
C846        C849   1.451       .  S
C847        C850   1.410       .  A
C847        C854   1.411       .  A
C848        N865   1.157       .  T
C849        N867   1.157       .  T
C850        C851   1.408       .  A
C850        C855   1.450       .  S
C851        C852   1.413       .  A
C851        C857   1.452       .  S
C852        C853   1.416       .  A
C853        C854   1.409       .  A
C853        C856   1.451       .  S
C854        C858   1.452       .  S
C855        N862   1.157       .  T
C856        N863   1.157       .  T
C857        N861   1.157       .  T
C858        N864   1.157       .  T
C859        N868   1.157       .  T
C860        N866   1.157       .  T
C869        C870   1.406       .  A
C869        C874   1.407       .  A
C869        C887   1.453       .  S
C870        C875   1.490       .  S
C870        C871   1.410       .  A
C871        C872   1.410       .  A
C871        C876   1.452       .  S
C872        C873   1.420       .  A
C872        C888   1.452       .  S
C873        C874   1.423       .  A
C874        C877   1.452       .  S
C875        C878   1.409       .  A
C875        C882   1.408       .  A
C876        N893   1.157       .  T
C877        N895   1.158       .  T
C878        C879   1.410       .  A
C878        C883   1.452       .  S
C879        C880   1.419       .  A
C879        C885   1.450       .  S
C880        C881   1.416       .  A
C881        C882   1.405       .  A
C881        C884   1.452       .  S
C882        C886   1.451       .  S
C883        N890   1.157       .  T
C884        N891   1.157       .  T
C885        N889   1.157       .  T
C886        N892   1.157       .  T
C887        N896   1.157       .  T
C888        N894   1.158       .  T
C897        C898   1.409       .  A
C897        C902   1.408       .  A
C897        C915   1.452       .  S
C898        C903   1.488       .  S
C898        C899   1.409       .  A
C899        C900   1.407       .  A
C899        C904   1.451       .  S
C900        C901   1.413       .  A
C900        C916   1.451       .  S
C901        C902   1.416       .  A
C902        C905   1.451       .  S
C903        C906   1.410       .  A
C903        C910   1.409       .  A
C904        N921   1.157       .  T
C905        N923   1.157       .  T
C906        C907   1.406       .  A
C906        C911   1.452       .  S
C907        C908   1.412       .  A
C907        C913   1.452       .  S
C908        C909   1.414       .  A
C909        C910   1.409       .  A
C909        C912   1.451       .  S
C910        C914   1.450       .  S
C911        N918   1.157       .  T
C912        N919   1.157       .  T
C913        N917   1.157       .  T
C914        N920   1.157       .  T
C915        N924   1.157       .  T
C916        N922   1.157       .  T
C925        C926   1.411       .  A
C925        C930   1.410       .  A
C925        C943   1.451       .  S
C926        C931   1.493       .  S
C926        C927   1.409       .  A
C927        C928   1.409       .  A
C927        C932   1.450       .  S
C928        C929   1.414       .  A
C928        C944   1.451       .  S
C929        C930   1.414       .  A
C930        C933   1.451       .  S
C931        C934   1.411       .  A
C931        C938   1.408       .  A
C932        N949   1.157       .  T
C933        N951   1.157       .  T
C934        C935   1.411       .  A
C934        C939   1.451       .  S
C935        C936   1.414       .  A
C935        C941   1.451       .  S
C936        C937   1.415       .  A
C937        C938   1.410       .  A
C937        C940   1.450       .  S
C938        C942   1.451       .  S
C939        N946   1.157       .  T
C940        N947   1.157       .  T
C941        N945   1.157       .  T
C942        N948   1.157       .  T
C943        N952   1.157       .  T
C944        N950   1.157       .  T
C953        C954   1.412       .  A
C953        C958   1.410       .  A
C953        C971   1.451       .  S
C954        C959   1.493       .  S
C954        C955   1.411       .  A
C955        C956   1.409       .  A
C955        C960   1.449       .  S
C956        C957   1.409       .  A
C956        C972   1.451       .  S
C957        C958   1.411       .  A
C958        C961   1.451       .  S
C959        C962   1.410       .  A
C959        C966   1.410       .  A
C960        N977   1.157       .  T
C961        N979   1.157       .  T
C962        C963   1.409       .  A
C962        C967   1.451       .  S
C963        C964   1.416       .  A
C963        C969   1.451       .  S
C964        C965   1.413       .  A
C965        C966   1.411       .  A
C965        C968   1.451       .  S
C966        C970   1.450       .  S
C967        N974   1.157       .  T
C968        N975   1.157       .  T
C969        N973   1.157       .  T
C970        N976   1.157       .  T
C971        N980   1.157       .  T
C972        N978   1.157       .  T
C981        C982   1.413       .  A
C981        C986   1.412       .  A
C981        C999   1.450       .  S
C982        C987   1.499       .  S
C982        C983   1.412       .  A
C983        C984   1.411       .  A
C983        C988   1.450       .  S
C984        C985   1.412       .  A
C984       C1000   1.451       .  S
C985        C986   1.411       .  A
C986        C989   1.451       .  S
C987        C990   1.413       .  A
C987        C994   1.411       .  A
C988       N1005   1.157       .  T
C989       N1007   1.157       .  T
C990        C991   1.413       .  A
C990        C995   1.450       .  S
C991        C992   1.412       .  A
C991        C997   1.450       .  S
C992        C993   1.413       .  A
C993        C994   1.411       .  A
C993        C996   1.451       .  S
C994        C998   1.450       .  S
C995       N1002   1.157       .  T
C996       N1003   1.157       .  T
C997       N1001   1.157       .  T
C998       N1004   1.157       .  T
C999       N1008   1.157       .  T
C1000      N1006   1.157       .  T
C1009      C1010   1.408       .  A
C1009      C1014   1.413       .  A
C1009      C1027   1.451       .  S
C1010      C1015   1.499       .  S
C1010      C1011   1.408       .  A
C1011      C1012   1.412       .  A
C1011      C1016   1.451       .  S
C1012      C1013   1.422       .  A
C1012      C1028   1.451       .  S
C1013      C1014   1.423       .  A
C1014      C1017   1.451       .  S
C1015      C1018   1.409       .  A
C1015      C1022   1.411       .  A
C1016      N1033   1.157       .  T
C1017      N1035   1.158       .  T
C1018      C1019   1.411       .  A
C1018      C1023   1.451       .  S
C1019      C1020   1.416       .  A
C1019      C1025   1.450       .  S
C1020      C1021   1.417       .  A
C1021      C1022   1.414       .  A
C1021      C1024   1.451       .  S
C1022      C1026   1.450       .  S
C1023      N1030   1.157       .  T
C1024      N1031   1.157       .  T
C1025      N1029   1.157       .  T
C1026      N1032   1.157       .  T
C1027      N1036   1.157       .  T
C1028      N1034   1.158       .  T
C1037      C1038   1.409       .  A
C1037      C1042   1.410       .  A
C1037      C1055   1.452       .  S
C1038      C1043   1.497       .  S
C1038      C1039   1.410       .  A
C1039      C1040   1.413       .  A
C1039      C1044   1.451       .  S
C1040      C1041   1.418       .  A
C1040      C1056   1.451       .  S
C1041      C1042   1.419       .  A
C1042      C1045   1.451       .  S
C1043      C1046   1.409       .  A
C1043      C1050   1.408       .  A
C1044      N1061   1.157       .  T
C1045      N1063   1.157       .  T
C1046      C1047   1.413       .  A
C1046      C1051   1.451       .  S
C1047      C1048   1.422       .  A
C1047      C1053   1.452       .  S
C1048      C1049   1.420       .  A
C1049      C1050   1.410       .  A
C1049      C1052   1.450       .  S
C1050      C1054   1.452       .  S
C1051      N1058   1.157       .  T
C1052      N1059   1.157       .  T
C1053      N1057   1.158       .  T
C1054      N1060   1.157       .  T
C1055      N1064   1.157       .  T
C1056      N1062   1.157       .  T
C1065      C1066   1.412       .  A
C1065      C1070   1.407       .  A
C1065      C1083   1.450       .  S
C1066      C1071   1.486       .  S
C1066      C1067   1.410       .  A
C1067      C1068   1.405       .  A
C1067      C1072   1.451       .  S
C1068      C1069   1.410       .  A
C1068      C1084   1.452       .  S
C1069      C1070   1.408       .  A
C1070      C1073   1.451       .  S
C1071      C1074   1.410       .  A
C1071      C1078   1.410       .  A
C1072      N1089   1.157       .  T
C1073      N1091   1.157       .  T
C1074      C1075   1.406       .  A
C1074      C1079   1.451       .  S
C1075      C1076   1.412       .  A
C1075      C1081   1.451       .  S
C1076      C1077   1.411       .  A
C1077      C1078   1.408       .  A
C1077      C1080   1.450       .  S
C1078      C1082   1.451       .  S
C1079      N1086   1.157       .  T
C1080      N1087   1.157       .  T
C1081      N1085   1.157       .  T
C1082      N1088   1.157       .  T
C1083      N1092   1.157       .  T
C1084      N1090   1.157       .  T
C1093      C1094   1.409       .  A
C1093      C1098   1.409       .  A
C1093      C1111   1.451       .  S
C1094      C1099   1.491       .  S
C1094      C1095   1.410       .  A
C1095      C1096   1.408       .  A
C1095      C1100   1.451       .  S
C1096      C1097   1.413       .  A
C1096      C1112   1.451       .  S
C1097      C1098   1.415       .  A
C1098      C1101   1.450       .  S
C1099      C1102   1.406       .  A
C1099      C1106   1.407       .  A
C1100      N1117   1.157       .  T
C1101      N1119   1.157       .  T
C1102      C1103   1.408       .  A
C1102      C1107   1.453       .  S
C1103      C1104   1.421       .  A
C1103      C1109   1.449       .  S
C1104      C1105   1.422       .  A
C1105      C1106   1.411       .  A
C1105      C1108   1.452       .  S
C1106      C1110   1.451       .  S
C1107      N1114   1.157       .  T
C1108      N1115   1.158       .  T
C1109      N1113   1.157       .  T
C1110      N1116   1.157       .  T
C1111      N1120   1.157       .  T
C1112      N1118   1.157       .  T
C1121      C1122   1.413       .  A
C1121      C1126   1.412       .  A
C1121      C1139   1.450       .  S
C1122      C1127   1.494       .  S
C1122      C1123   1.411       .  A
C1123      C1124   1.407       .  A
C1123      C1128   1.451       .  S
C1124      C1125   1.410       .  A
C1124      C1140   1.451       .  S
C1125      C1126   1.410       .  A
C1126      C1129   1.450       .  S
C1127      C1130   1.413       .  A
C1127      C1134   1.411       .  A
C1128      N1145   1.157       .  T
C1129      N1147   1.157       .  T
C1130      C1131   1.409       .  A
C1130      C1135   1.451       .  S
C1131      C1132   1.409       .  A
C1131      C1137   1.451       .  S
C1132      C1133   1.412       .  A
C1133      C1134   1.411       .  A
C1133      C1136   1.451       .  S
C1134      C1138   1.450       .  S
C1135      N1142   1.157       .  T
C1136      N1143   1.157       .  T
C1137      N1141   1.157       .  T
C1138      N1144   1.157       .  T
C1139      N1148   1.157       .  T
C1140      N1146   1.157       .  T
C1149      C1150   1.410       .  A
C1149      C1154   1.408       .  A
C1149      C1167   1.452       .  S
C1150      C1155   1.495       .  S
C1150      C1151   1.411       .  A
C1151      C1152   1.413       .  A
C1151      C1156   1.450       .  S
C1152      C1153   1.416       .  A
C1152      C1168   1.450       .  S
C1153      C1154   1.415       .  A
C1154      C1157   1.452       .  S
C1155      C1158   1.409       .  A
C1155      C1162   1.410       .  A
C1156      N1173   1.157       .  T
C1157      N1175   1.157       .  T
C1158      C1159   1.410       .  A
C1158      C1163   1.451       .  S
C1159      C1160   1.418       .  A
C1159      C1165   1.452       .  S
C1160      C1161   1.419       .  A
C1161      C1162   1.412       .  A
C1161      C1164   1.451       .  S
C1162      C1166   1.451       .  S
C1163      N1170   1.157       .  T
C1164      N1171   1.158       .  T
C1165      N1169   1.157       .  T
C1166      N1172   1.157       .  T
C1167      N1176   1.157       .  T
C1168      N1174   1.157       .  T
C1177      C1178   1.410       .  A
C1177      C1182   1.406       .  A
C1177      C1195   1.451       .  S
C1178      C1183   1.490       .  S
C1178      C1179   1.410       .  A
C1179      C1180   1.409       .  A
C1179      C1184   1.450       .  S
C1180      C1181   1.411       .  A
C1180      C1196   1.450       .  S
C1181      C1182   1.412       .  A
C1182      C1185   1.452       .  S
C1183      C1186   1.411       .  A
C1183      C1190   1.409       .  A
C1184      N1201   1.157       .  T
C1185      N1203   1.157       .  T
C1186      C1187   1.408       .  A
C1186      C1191   1.451       .  S
C1187      C1188   1.412       .  A
C1187      C1193   1.451       .  S
C1188      C1189   1.415       .  A
C1189      C1190   1.409       .  A
C1189      C1192   1.451       .  S
C1190      C1194   1.451       .  S
C1191      N1198   1.157       .  T
C1192      N1199   1.157       .  T
C1193      N1197   1.157       .  T
C1194      N1200   1.157       .  T
C1195      N1204   1.157       .  T
C1196      N1202   1.157       .  T
C1205      C1206   1.410       .  A
C1205      C1210   1.416       .  A
C1205      C1223   1.450       .  S
C1206      C1211   1.496       .  S
C1206      C1207   1.407       .  A
C1207      C1208   1.407       .  A
C1207      C1212   1.452       .  S
C1208      C1209   1.416       .  A
C1208      C1224   1.449       .  S
C1209      C1210   1.420       .  A
C1210      C1213   1.451       .  S
C1211      C1214   1.411       .  A
C1211      C1218   1.411       .  A
C1212      N1229   1.157       .  T
C1213      N1231   1.157       .  T
C1214      C1215   1.410       .  A
C1214      C1219   1.450       .  S
C1215      C1216   1.412       .  A
C1215      C1221   1.451       .  S
C1216      C1217   1.412       .  A
C1217      C1218   1.410       .  A
C1217      C1220   1.451       .  S
C1218      C1222   1.450       .  S
C1219      N1226   1.157       .  T
C1220      N1227   1.157       .  T
C1221      N1225   1.157       .  T
C1222      N1228   1.157       .  T
C1223      N1232   1.157       .  T
C1224      N1230   1.157       .  T
C1233      C1234   1.411       .  A
C1233      C1238   1.405       .  A
C1233      C1251   1.451       .  S
C1234      C1239   1.490       .  S
C1234      C1235   1.412       .  A
C1235      C1236   1.408       .  A
C1235      C1240   1.450       .  S
C1236      C1237   1.410       .  A
C1236      C1252   1.451       .  S
C1237      C1238   1.410       .  A
C1238      C1241   1.452       .  S
C1239      C1242   1.411       .  A
C1239      C1246   1.411       .  A
C1240      N1257   1.157       .  T
C1241      N1259   1.157       .  T
C1242      C1243   1.409       .  A
C1242      C1247   1.451       .  S
C1243      C1244   1.412       .  A
C1243      C1249   1.451       .  S
C1244      C1245   1.414       .  A
C1245      C1246   1.407       .  A
C1245      C1248   1.452       .  S
C1246      C1250   1.452       .  S
C1247      N1254   1.157       .  T
C1248      N1255   1.157       .  T
C1249      N1253   1.157       .  T
C1250      N1256   1.157       .  T
C1251      N1260   1.157       .  T
C1252      N1258   1.157       .  T
C1261      C1262   1.408       .  A
C1261      C1266   1.409       .  A
C1261      C1279   1.452       .  S
C1262      C1267   1.497       .  S
C1262      C1263   1.411       .  A
C1263      C1264   1.412       .  A
C1263      C1268   1.452       .  S
C1264      C1265   1.420       .  A
C1264      C1280   1.452       .  S
C1265      C1266   1.424       .  A
C1266      C1269   1.453       .  S
C1267      C1270   1.414       .  A
C1267      C1274   1.412       .  A
C1268      N1285   1.157       .  T
C1269      N1287   1.158       .  T
C1270      C1271   1.411       .  A
C1270      C1275   1.451       .  S
C1271      C1272   1.410       .  A
C1271      C1277   1.451       .  S
C1272      C1273   1.409       .  A
C1273      C1274   1.409       .  A
C1273      C1276   1.450       .  S
C1274      C1278   1.451       .  S
C1275      N1282   1.157       .  T
C1276      N1283   1.157       .  T
C1277      N1281   1.157       .  T
C1278      N1284   1.157       .  T
C1279      N1288   1.157       .  T
C1280      N1286   1.158       .  T
C1289      C1290   1.409       .  A
C1289      C1294   1.413       .  A
C1289      C1307   1.451       .  S
C1290      C1295   1.498       .  S
C1290      C1291   1.408       .  A
C1291      C1292   1.411       .  A
C1291      C1296   1.452       .  S
C1292      C1293   1.422       .  A
C1292      C1308   1.452       .  S
C1293      C1294   1.420       .  A
C1294      C1297   1.451       .  S
C1295      C1298   1.409       .  A
C1295      C1302   1.408       .  A
C1296      N1313   1.157       .  T
C1297      N1315   1.158       .  T
C1298      C1299   1.411       .  A
C1298      C1303   1.451       .  S
C1299      C1300   1.417       .  A
C1299      C1305   1.449       .  S
C1300      C1301   1.421       .  A
C1301      C1302   1.413       .  A
C1301      C1304   1.448       .  S
C1302      C1306   1.452       .  S
C1303      N1310   1.157       .  T
C1304      N1311   1.156       .  T
C1305      N1309   1.157       .  T
C1306      N1312   1.157       .  T
C1307      N1316   1.157       .  T
C1308      N1314   1.158       .  T
C1317      C1318   1.409       .  A
C1317      C1322   1.408       .  A
C1317      C1335   1.451       .  S
C1318      C1323   1.495       .  S
C1318      C1319   1.411       .  A
C1319      C1320   1.413       .  A
C1319      C1324   1.450       .  S
C1320      C1321   1.415       .  A
C1320      C1336   1.450       .  S
C1321      C1322   1.417       .  A
C1322      C1325   1.452       .  S
C1323      C1326   1.410       .  A
C1323      C1330   1.409       .  A
C1324      N1341   1.157       .  T
C1325      N1343   1.157       .  T
C1326      C1327   1.410       .  A
C1326      C1331   1.451       .  S
C1327      C1328   1.417       .  A
C1327      C1333   1.451       .  S
C1328      C1329   1.418       .  A
C1329      C1330   1.411       .  A
C1329      C1332   1.451       .  S
C1330      C1334   1.451       .  S
C1331      N1338   1.157       .  T
C1332      N1339   1.157       .  T
C1333      N1337   1.157       .  T
C1334      N1340   1.157       .  T
C1335      N1344   1.157       .  T
C1336      N1342   1.157       .  T
C1345      C1346   1.408       .  A
C1345      C1350   1.408       .  A
C1345      C1363   1.451       .  S
C1346      C1351   1.491       .  S
C1346      C1347   1.408       .  A
C1347      C1348   1.410       .  A
C1347      C1352   1.451       .  S
C1348      C1349   1.417       .  A
C1348      C1364   1.451       .  S
C1349      C1350   1.419       .  A
C1350      C1353   1.452       .  S
C1351      C1354   1.411       .  A
C1351      C1358   1.408       .  A
C1352      N1369   1.157       .  T
C1353      N1371   1.158       .  T
C1354      C1355   1.410       .  A
C1354      C1359   1.451       .  S
C1355      C1356   1.414       .  A
C1355      C1361   1.451       .  S
C1356      C1357   1.416       .  A
C1357      C1358   1.409       .  A
C1357      C1360   1.451       .  S
C1358      C1362   1.450       .  S
C1359      N1366   1.157       .  T
C1360      N1367   1.157       .  T
C1361      N1365   1.157       .  T
C1362      N1368   1.157       .  T
C1363      N1372   1.157       .  T
C1364      N1370   1.157       .  T
C1373      C1374   1.410       .  A
C1373      C1378   1.409       .  A
C1373      C1391   1.451       .  S
C1374      C1379   1.492       .  S
C1374      C1375   1.410       .  A
C1375      C1376   1.409       .  A
C1375      C1380   1.452       .  S
C1376      C1377   1.418       .  A
C1376      C1392   1.452       .  S
C1377      C1378   1.415       .  A
C1378      C1381   1.451       .  S
C1379      C1382   1.413       .  A
C1379      C1386   1.412       .  A
C1380      N1397   1.157       .  T
C1381      N1399   1.157       .  T
C1382      C1383   1.408       .  A
C1382      C1387   1.451       .  S
C1383      C1384   1.410       .  A
C1383      C1389   1.452       .  S
C1384      C1385   1.409       .  A
C1385      C1386   1.407       .  A
C1385      C1388   1.452       .  S
C1386      C1390   1.450       .  S
C1387      N1394   1.157       .  T
C1388      N1395   1.157       .  T
C1389      N1393   1.157       .  T
C1390      N1396   1.157       .  T
C1391      N1400   1.157       .  T
C1392      N1398   1.158       .  T
C1401      C1402   1.410       .  A
C1401      C1406   1.410       .  A
C1401      C1419   1.451       .  S
C1402      C1407   1.498       .  S
C1402      C1403   1.411       .  A
C1403      C1404   1.412       .  A
C1403      C1408   1.451       .  S
C1404      C1405   1.416       .  A
C1404      C1420   1.451       .  S
C1405      C1406   1.416       .  A
C1406      C1409   1.451       .  S
C1407      C1410   1.412       .  A
C1407      C1414   1.412       .  A
C1408      N1425   1.157       .  T
C1409      N1427   1.157       .  T
C1410      C1411   1.411       .  A
C1410      C1415   1.451       .  S
C1411      C1412   1.411       .  A
C1411      C1417   1.450       .  S
C1412      C1413   1.411       .  A
C1413      C1414   1.411       .  A
C1413      C1416   1.451       .  S
C1414      C1418   1.450       .  S
C1415      N1422   1.157       .  T
C1416      N1423   1.157       .  T
C1417      N1421   1.157       .  T
C1418      N1424   1.157       .  T
C1419      N1428   1.157       .  T
C1420      N1426   1.157       .  T
C1429      C1430   1.411       .  A
C1429      C1434   1.407       .  A
C1429      C1447   1.452       .  S
C1430      C1435   1.491       .  S
C1430      C1431   1.409       .  A
C1431      C1432   1.410       .  A
C1431      C1436   1.450       .  S
C1432      C1433   1.414       .  A
C1432      C1448   1.451       .  S
C1433      C1434   1.412       .  A
C1434      C1437   1.450       .  S
C1435      C1438   1.409       .  A
C1435      C1442   1.409       .  A
C1436      N1453   1.157       .  T
C1437      N1455   1.157       .  T
C1438      C1439   1.407       .  A
C1438      C1443   1.451       .  S
C1439      C1440   1.415       .  A
C1439      C1445   1.451       .  S
C1440      C1441   1.417       .  A
C1441      C1442   1.409       .  A
C1441      C1444   1.451       .  S
C1442      C1446   1.450       .  S
C1443      N1450   1.157       .  T
C1444      N1451   1.157       .  T
C1445      N1449   1.157       .  T
C1446      N1452   1.157       .  T
C1447      N1456   1.157       .  T
C1448      N1454   1.157       .  T
C1457      C1458   1.411       .  A
C1457      C1462   1.407       .  A
C1457      C1475   1.451       .  S
C1458      C1463   1.490       .  S
C1458      C1459   1.411       .  A
C1459      C1460   1.409       .  A
C1459      C1464   1.451       .  S
C1460      C1461   1.410       .  A
C1460      C1476   1.450       .  S
C1461      C1462   1.410       .  A
C1462      C1465   1.451       .  S
C1463      C1466   1.412       .  A
C1463      C1470   1.410       .  A
C1464      N1481   1.157       .  T
C1465      N1483   1.157       .  T
C1466      C1467   1.409       .  A
C1466      C1471   1.450       .  S
C1467      C1468   1.411       .  A
C1467      C1473   1.451       .  S
C1468      C1469   1.412       .  A
C1469      C1470   1.406       .  A
C1469      C1472   1.452       .  S
C1470      C1474   1.451       .  S
C1471      N1478   1.157       .  T
C1472      N1479   1.157       .  T
C1473      N1477   1.157       .  T
C1474      N1480   1.157       .  T
C1475      N1484   1.157       .  T
C1476      N1482   1.157       .  T
C1485      C1486   1.409       .  A
C1485      C1490   1.403       .  A
C1485      C1503   1.451       .  S
C1486      C1491   1.484       .  S
C1486      C1487   1.411       .  A
C1487      C1488   1.407       .  A
C1487      C1492   1.450       .  S
C1488      C1489   1.410       .  A
C1488      C1504   1.451       .  S
C1489      C1490   1.410       .  A
C1490      C1493   1.452       .  S
C1491      C1494   1.409       .  A
C1491      C1498   1.408       .  A
C1492      N1509   1.157       .  T
C1493      N1511   1.157       .  T
C1494      C1495   1.407       .  A
C1494      C1499   1.452       .  S
C1495      C1496   1.413       .  A
C1495      C1501   1.451       .  S
C1496      C1497   1.414       .  A
C1497      C1498   1.407       .  A
C1497      C1500   1.451       .  S
C1498      C1502   1.451       .  S
C1499      N1506   1.157       .  T
C1500      N1507   1.157       .  T
C1501      N1505   1.157       .  T
C1502      N1508   1.157       .  T
C1503      N1512   1.157       .  T
C1504      N1510   1.157       .  T
C1513      C1514   1.411       .  A
C1513      C1518   1.408   1_655  A
C1513      C1531   1.452       .  S
C1514      C1519   1.493       .  S
C1514      C1515   1.409   1_655  A
C1515      C1516   1.412       .  A
C1515      C1520   1.451       .  S
C1516      C1517   1.418       .  A
C1516      C1532   1.451       .  S
C1517      C1518   1.415       .  A
C1518      C1521   1.452       .  S
C1519      C1522   1.408       .  A
C1519      C1526   1.409       .  A
C1520      N1537   1.157       .  T
C1521      N1539   1.157   1_455  T
C1522      C1523   1.410       .  A
C1522      C1527   1.451       .  S
C1523      C1524   1.419       .  A
C1523      C1529   1.451       .  S
C1524      C1525   1.417       .  A
C1525      C1526   1.410       .  A
C1525      C1528   1.450       .  S
C1526      C1530   1.451       .  S
C1527      N1534   1.157       .  T
C1528      N1535   1.157       .  T
C1529      N1533   1.157       .  T
C1530      N1536   1.157   1_655  T
C1531      N1540   1.157       .  T
C1532      N1538   1.157       .  T
C1541      C1542   1.411       .  A
C1541      C1546   1.407       .  A
C1541      C1559   1.451       .  S
C1542      C1547   1.488       .  S
C1542      C1543   1.410       .  A
C1543      C1544   1.408       .  A
C1543      C1548   1.450       .  S
C1544      C1545   1.410       .  A
C1544      C1560   1.450       .  S
C1545      C1546   1.409       .  A
C1546      C1549   1.451       .  S
C1547      C1550   1.409       .  A
C1547      C1554   1.408       .  A
C1548      N1565   1.157       .  T
C1549      N1567   1.157       .  T
C1550      C1551   1.411       .  A
C1550      C1555   1.450       .  S
C1551      C1552   1.414       .  A
C1551      C1557   1.449       .  S
C1552      C1553   1.413       .  A
C1553      C1554   1.405       .  A
C1553      C1556   1.451       .  S
C1554      C1558   1.451       .  S
C1555      N1562   1.157       .  T
C1556      N1563   1.157       .  T
C1557      N1561   1.157       .  T
C1558      N1564   1.157       .  T
C1559      N1568   1.157       .  T
C1560      N1566   1.157       .  T
C1569      C1570   1.412       .  A
C1569      C1574   1.411   1_655  A
C1569      C1587   1.451       .  S
C1570      C1575   1.498       .  S
C1570      C1571   1.411       .  A
C1571      C1572   1.412   1_655  A
C1571      C1576   1.450       .  S
C1572      C1573   1.412       .  A
C1572      C1588   1.450       .  S
C1573      C1574   1.413       .  A
C1574      C1577   1.451       .  S
C1575      C1578   1.410       .  A
C1575      C1582   1.411       .  A
C1576      N1593   1.157       .  T
C1577      N1595   1.157       .  T
C1578      C1579   1.413       .  A
C1578      C1583   1.451       .  S
C1579      C1580   1.416       .  A
C1579      C1585   1.451       .  S
C1580      C1581   1.414       .  A
C1581      C1582   1.412       .  A
C1581      C1584   1.450       .  S
C1582      C1586   1.450       .  S
C1583      N1590   1.157   1_655  T
C1584      N1591   1.157       .  T
C1585      N1589   1.157       .  T
C1586      N1592   1.157       .  T
C1587      N1596   1.157       .  T
C1588      N1594   1.157       .  T
C1597      C1598   1.410       .  A
C1597      C1602   1.412       .  A
C1597      C1615   1.450       .  S
C1598      C1603   1.497       .  S
C1598      C1599   1.412       .  A
C1599      C1600   1.411       .  A
C1599      C1604   1.450       .  S
C1600      C1601   1.412       .  A
C1600      C1616   1.451       .  S
C1601      C1602   1.414       .  A
C1602      C1605   1.451       .  S
C1603      C1606   1.411       .  A
C1603      C1610   1.411       .  A
C1604      N1621   1.157       .  T
C1605      N1623   1.157       .  T
C1606      C1607   1.414       .  A
C1606      C1611   1.450       .  S
C1607      C1608   1.415       .  A
C1607      C1613   1.450       .  S
C1608      C1609   1.415       .  A
C1609      C1610   1.408       .  A
C1609      C1612   1.452       .  S
C1610      C1614   1.451       .  S
C1611      N1618   1.157       .  T
C1612      N1619   1.157       .  T
C1613      N1617   1.157       .  T
C1614      N1620   1.157       .  T
C1615      N1624   1.157       .  T
C1616      N1622   1.157       .  T
C1625      C1626   1.410       .  A
C1625      C1630   1.409       .  A
C1625      C1643   1.451       .  S
C1626      C1631   1.497       .  S
C1626      C1627   1.412       .  A
C1627      C1628   1.413       .  A
C1627      C1632   1.450       .  S
C1628      C1629   1.413       .  A
C1628      C1644   1.449       .  S
C1629      C1630   1.415       .  A
C1630      C1633   1.451       .  S
C1631      C1634   1.413       .  A
C1631      C1638   1.412       .  A
C1632      N1649   1.157       .  T
C1633      N1651   1.157       .  T
C1634      C1635   1.409       .  A
C1634      C1639   1.450       .  S
C1635      C1636   1.409       .  A
C1635      C1641   1.451       .  S
C1636      C1637   1.411       .  A
C1637      C1638   1.411       .  A
C1637      C1640   1.450       .  S
C1638      C1642   1.450       .  S
C1639      N1646   1.157       .  T
C1640      N1647   1.157       .  T
C1641      N1645   1.157       .  T
C1642      N1648   1.157       .  T
C1643      N1652   1.157       .  T
C1644      N1650   1.157       .  T
C1653      C1654   1.410       .  A
C1653      C1658   1.411       .  A
C1653      C1671   1.453       .  S
C1654      C1659   1.503       .  S
C1654      C1655   1.411       .  A
C1655      C1656   1.415       .  A
C1655      C1660   1.451       .  S
C1656      C1657   1.421       .  A
C1656      C1672   1.450       .  S
C1657      C1658   1.424       .  A
C1658      C1661   1.453       .  S
C1659      C1662   1.410       .  A
C1659      C1666   1.412       .  A
C1660      N1677   1.157       .  T
C1661      N1679   1.157       .  T
C1662      C1663   1.410       .  A
C1662      C1667   1.452       .  S
C1663      C1664   1.420       .  A
C1663      C1669   1.452       .  S
C1664      C1665   1.419       .  A
C1665      C1666   1.414       .  A
C1665      C1668   1.450       .  S
C1666      C1670   1.451       .  S
C1667      N1674   1.157       .  T
C1668      N1675   1.157       .  T
C1669      N1673   1.157   1_545  T
C1670      N1676   1.157       .  T
C1671      N1680   1.157       .  T
C1672      N1678   1.157       .  T
C1681      C1682   1.409       .  A
C1681      C1686   1.408       .  A
C1681      C1699   1.452       .  S
C1682      C1687   1.487       .  S
C1682      C1683   1.406       .  A
C1683      C1684   1.406       .  A
C1683      C1688   1.451       .  S
C1684      C1685   1.420       .  A
C1684      C1700   1.452       .  S
C1685      C1686   1.418       .  A
C1686      C1689   1.452       .  S
C1687      C1690   1.407       .  A
C1687      C1694   1.406       .  A
C1688      N1705   1.157       .  T
C1689      N1707   1.158       .  T
C1690      C1691   1.406       .  A
C1690      C1695   1.452       .  S
C1691      C1692   1.420       .  A
C1691      C1697   1.452       .  S
C1692      C1693   1.419       .  A
C1693      C1694   1.409       .  A
C1693      C1696   1.450       .  S
C1694      C1698   1.452       .  S
C1695      N1702   1.157       .  T
C1696      N1703   1.157       .  T
C1697      N1701   1.157       .  T
C1698      N1704   1.157       .  T
C1699      N1708   1.157       .  T
C1700      N1706   1.157       .  T
C1709      C1710   1.410       .  A
C1709      C1714   1.406       .  A
C1709      C1727   1.451       .  S
C1710      C1715   1.486       .  S
C1710      C1711   1.409       .  A
C1711      C1712   1.407       .  A
C1711      C1716   1.450       .  S
C1712      C1713   1.411       .  A
C1712      C1728   1.451       .  S
C1713      C1714   1.411       .  A
C1714      C1717   1.451       .  S
C1715      C1718   1.407       .  A
C1715      C1722   1.408       .  A
C1716      N1733   1.157       .  T
C1717      N1735   1.157       .  T
C1718      C1719   1.407       .  A
C1718      C1723   1.451       .  S
C1719      C1720   1.416       .  A
C1719      C1725   1.451       .  S
C1720      C1721   1.414       .  A
C1721      C1722   1.408       .  A
C1721      C1724   1.450       .  S
C1722      C1726   1.451       .  S
C1723      N1730   1.157       .  T
C1724      N1731   1.157       .  T
C1725      N1729   1.157       .  T
C1726      N1732   1.157       .  T
C1727      N1736   1.157       .  T
C1728      N1734   1.157       .  T
C1737      C1738   1.410       .  A
C1737      C1742   1.406       .  A
C1737      C1755   1.451       .  S
C1738      C1743   1.490       .  S
C1738      C1739   1.410       .  A
C1739      C1740   1.411       .  A
C1739      C1744   1.450       .  S
C1740      C1741   1.414       .  A
C1740      C1756   1.450       .  S
C1741      C1742   1.412       .  A
C1742      C1745   1.451       .  S
C1743      C1746   1.409       .  A
C1743      C1750   1.407       .  A
C1744      N1761   1.157       .  T
C1745      N1763   1.157       .  T
C1746      C1747   1.409       .  A
C1746      C1751   1.452       .  S
C1747      C1748   1.418       .  A
C1747      C1753   1.451       .  S
C1748      C1749   1.419       .  A
C1749      C1750   1.409       .  A
C1749      C1752   1.451       .  S
C1750      C1754   1.451       .  S
C1751      N1758   1.157       .  T
C1752      N1759   1.157       .  T
C1753      N1757   1.157       .  T
C1754      N1760   1.157       .  T
C1755      N1764   1.157       .  T
C1756      N1762   1.157       .  T
C1765      C1766   1.411       .  A
C1765      C1770   1.406       .  A
C1765      C1783   1.452       .  S
C1766      C1771   1.492       .  S
C1766      C1767   1.413       .  A
C1767      C1768   1.410       .  A
C1767      C1772   1.450       .  S
C1768      C1769   1.410       .  A
C1768      C1784   1.450       .  S
C1769      C1770   1.409       .  A
C1770      C1773   1.447       .  S
C1771      C1774   1.413       .  A
C1771      C1778   1.412       .  A
C1772      N1789   1.157       .  T
C1773      N1791   1.155       .  T
C1774      C1775   1.408       .  A
C1774      C1779   1.452       .  S
C1775      C1776   1.409       .  A
C1775      C1781   1.451       .  S
C1776      C1777   1.409       .  A
C1777      C1778   1.408       .  A
C1777      C1780   1.451       .  S
C1778      C1782   1.450       .  S
C1779      N1786   1.157       .  T
C1780      N1787   1.157       .  T
C1781      N1785   1.157       .  T
C1782      N1788   1.157       .  T
C1783      N1792   1.157       .  T
C1784      N1790   1.157       .  T
C1793      C1794   1.413       .  A
C1793      C1798   1.411       .  A
C1793      C1811   1.450       .  S
C1794      C1799   1.496       .  S
C1794      C1795   1.414       .  A
C1795      C1796   1.407       .  A
C1795      C1800   1.451       .  S
C1796      C1797   1.409       .  A
C1796      C1812   1.452       .  S
C1797      C1798   1.409       .  A
C1798      C1801   1.450       .  S
C1799      C1802   1.414       .  A
C1799      C1806   1.412       .  A
C1800      N1817   1.157       .  T
C1801      N1819   1.157       .  T
C1802      C1803   1.411       .  A
C1802      C1807   1.450       .  S
C1803      C1804   1.409       .  A
C1803      C1809   1.451       .  S
C1804      C1805   1.411       .  A
C1805      C1806   1.408       .  A
C1805      C1808   1.451       .  S
C1806      C1810   1.451       .  S
C1807      N1814   1.157       .  T
C1808      N1815   1.157       .  T
C1809      N1813   1.157       .  T
C1810      N1816   1.157       .  T
C1811      N1820   1.157       .  T
C1812      N1818   1.157       .  T
C1821      C1822   1.412       .  A
C1821      C1826   1.409       .  A
C1821      C1839   1.451       .  S
C1822      C1827   1.492       .  S
C1822      C1823   1.409       .  A
C1823      C1824   1.408       .  A
C1823      C1828   1.451       .  S
C1824      C1825   1.416       .  A
C1824      C1840   1.451       .  S
C1825      C1826   1.412       .  A
C1826      C1829   1.451       .  S
C1827      C1830   1.411       .  A
C1827      C1834   1.412       .  A
C1828      N1845   1.157       .  T
C1829      N1847   1.157       .  T
C1830      C1831   1.407       .  A
C1830      C1835   1.451       .  S
C1831      C1832   1.409       .  A
C1831      C1837   1.451       .  S
C1832      C1833   1.410       .  A
C1833      C1834   1.410       .  A
C1833      C1836   1.450       .  S
C1834      C1838   1.451       .  S
C1835      N1842   1.157       .  T
C1836      N1843   1.157       .  T
C1837      N1841   1.157       .  T
C1838      N1844   1.157       .  T
C1839      N1848   1.157       .  T
C1840      N1846   1.157   1_554  T
C1849      C1850   1.410       .  A
C1849      C1854   1.410       .  A
C1849      C1867   1.451   1_554  S
C1850      C1855   1.495   1_554  S
C1850      C1851   1.409       .  A
C1851      C1852   1.411       .  A
C1851      C1856   1.451       .  S
C1852      C1853   1.418       .  A
C1852      C1868   1.451       .  S
C1853      C1854   1.417       .  A
C1854      C1857   1.451       .  S
C1855      C1858   1.408       .  A
C1855      C1862   1.409       .  A
C1856      N1873   1.157       .  T
C1857      N1875   1.157       .  T
C1858      C1859   1.409       .  A
C1858      C1863   1.450       .  S
C1859      C1860   1.418       .  A
C1859      C1865   1.452       .  S
C1860      C1861   1.420       .  A
C1861      C1862   1.412       .  A
C1861      C1864   1.451       .  S
C1862      C1866   1.452       .  S
C1863      N1870   1.157       .  T
C1864      N1871   1.157       .  T
C1865      N1869   1.157       .  T
C1866      N1872   1.157       .  T
C1867      N1876   1.157       .  T
C1868      N1874   1.157       .  T
C1877      C1878   1.409       .  A
C1877      C1882   1.410       .  A
C1877      C1895   1.451       .  S
C1878      C1883   1.498       .  S
C1878      C1879   1.412       .  A
C1879      C1880   1.413   1_655  A
C1879      C1884   1.450       .  S
C1880      C1881   1.415       .  A
C1880      C1896   1.450       .  S
C1881      C1882   1.417   1_455  A
C1882      C1885   1.451   1_655  S
C1883      C1886   1.413       .  A
C1883      C1890   1.409       .  A
C1884      N1901   1.157       .  T
C1885      N1903   1.157       .  T
C1886      C1887   1.414       .  A
C1886      C1891   1.450       .  S
C1887      C1888   1.415       .  A
C1887      C1893   1.450       .  S
C1888      C1889   1.416       .  A
C1889      C1890   1.408       .  A
C1889      C1892   1.451       .  S
C1890      C1894   1.451       .  S
C1891      N1898   1.157       .  T
C1892      N1899   1.157       .  T
C1893      N1897   1.157       .  T
C1894      N1900   1.157       .  T
C1895      N1904   1.157       .  T
C1896      N1902   1.157       .  T
C1905      C1906   1.410       .  A
C1905      C1910   1.411       .  A
C1905      C1923   1.450       .  S
C1906      C1911   1.491       .  S
C1906      C1907   1.410       .  A
C1907      C1908   1.407       .  A
C1907      C1912   1.452       .  S
C1908      C1909   1.412       .  A
C1908      C1924   1.451       .  S
C1909      C1910   1.412       .  A
C1910      C1913   1.449       .  S
C1911      C1914   1.411       .  A
C1911      C1918   1.409       .  A
C1912      N1929   1.157       .  T
C1913      N1931   1.157       .  T
C1914      C1915   1.409       .  A
C1914      C1919   1.450       .  S
C1915      C1916   1.412       .  A
C1915      C1921   1.450       .  S
C1916      C1917   1.415       .  A
C1917      C1918   1.408       .  A
C1917      C1920   1.452       .  S
C1918      C1922   1.450       .  S
C1919      N1926   1.157       .  T
C1920      N1927   1.157       .  T
C1921      N1925   1.157       .  T
C1922      N1928   1.157       .  T
C1923      N1932   1.157       .  T
C1924      N1930   1.157       .  T
C1933      C1934   1.410       .  A
C1933      C1938   1.410       .  A
C1933      C1951   1.452       .  S
C1934      C1939   1.497   1_556  S
C1934      C1935   1.411       .  A
C1935      C1936   1.411       .  A
C1935      C1940   1.452       .  S
C1936      C1937   1.420       .  A
C1936      C1952   1.452       .  S
C1937      C1938   1.418       .  A
C1938      C1941   1.451       .  S
C1939      C1942   1.412       .  A
C1939      C1946   1.413       .  A
C1940      N1957   1.157       .  T
C1941      N1959   1.157       .  T
C1942      C1943   1.409       .  A
C1942      C1947   1.451       .  S
C1943      C1944   1.411       .  A
C1943      C1949   1.451       .  S
C1944      C1945   1.411       .  A
C1945      C1946   1.409       .  A
C1945      C1948   1.449       .  S
C1946      C1950   1.451   1_554  S
C1947      N1954   1.157       .  T
C1948      N1955   1.157       .  T
C1949      N1953   1.157       .  T
C1950      N1956   1.157       .  T
C1951      N1960   1.157       .  T
C1952      N1958   1.158       .  T
C1961      C1962   1.410       .  A
C1961      C1966   1.405       .  A
C1961      C1979   1.452       .  S
C1962      C1967   1.491       .  S
C1962      C1963   1.413       .  A
C1963      C1964   1.410       .  A
C1963      C1968   1.450       .  S
C1964      C1965   1.410       .  A
C1964      C1980   1.451       .  S
C1965      C1966   1.414       .  A
C1966      C1969   1.453       .  S
C1967      C1970   1.409       .  A
C1967      C1974   1.411       .  A
C1968      N1985   1.157       .  T
C1969      N1987   1.157       .  T
C1970      C1971   1.409   1_655  A
C1970      C1975   1.451       .  S
C1971      C1972   1.414       .  A
C1971      C1977   1.448       .  S
C1972      C1973   1.415       .  A
C1973      C1974   1.408   1_455  A
C1973      C1976   1.452       .  S
C1974      C1978   1.451       .  S
C1975      N1982   1.157       .  T
C1976      N1983   1.157       .  T
C1977      N1981   1.156       .  T
C1978      N1984   1.157       .  T
C1979      N1988   1.157       .  T
C1980      N1986   1.157       .  T
C1989      C1990   1.409       .  A
C1989      C1994   1.411       .  A
C1989      C2007   1.451       .  S
C1990      C1995   1.490       .  S
C1990      C1991   1.409       .  A
C1991      C1992   1.406       .  A
C1991      C1996   1.452       .  S
C1992      C1993   1.414       .  A
C1992      C2008   1.451       .  S
C1993      C1994   1.415       .  A
C1994      C1997   1.450       .  S
C1995      C1998   1.408       .  A
C1995      C2002   1.408       .  A
C1996      N2013   1.157       .  T
C1997      N2015   1.157       .  T
C1998      C1999   1.407       .  A
C1998      C2003   1.452       .  S
C1999      C2000   1.418       .  A
C1999      C2005   1.452       .  S
C2000      C2001   1.417       .  A
C2001      C2002   1.410       .  A
C2001      C2004   1.449       .  S
C2002      C2006   1.451       .  S
C2003      N2010   1.157       .  T
C2004      N2011   1.157       .  T
C2005      N2009   1.157       .  T
C2006      N2012   1.157       .  T
C2007      N2016   1.157       .  T
C2008      N2014   1.157       .  T
C2017      C2018   1.408       .  A
C2017      C2022   1.408       .  A
C2017      C2035   1.451   1_565  S
C2018      C2023   1.487       .  S
C2018      C2019   1.407       .  A
C2019      C2020   1.406       .  A
C2019      C2024   1.452       .  S
C2020      C2021   1.419       .  A
C2020      C2036   1.452       .  S
C2021      C2022   1.418       .  A
C2022      C2025   1.451   1_565  S
C2023      C2026   1.408       .  A
C2023      C2030   1.409       .  A
C2024      N2041   1.157       .  T
C2025      N2043   1.157       .  T
C2026      C2027   1.406       .  A
C2026      C2031   1.451   1_565  S
C2027      C2028   1.415   1_455  A
C2027      C2033   1.452   1_565  S
C2028      C2029   1.414   1_655  A
C2029      C2030   1.408       .  A
C2029      C2032   1.451   1_455  S
C2030      C2034   1.451       .  S
C2031      N2038   1.157       .  T
C2032      N2039   1.157       .  T
C2033      N2037   1.157   1_455  T
C2034      N2040   1.157       .  T
C2035      N2044   1.157       .  T
C2036      N2042   1.158       .  T
C2045      C2046   1.408       .  A
C2045      C2050   1.407       .  A
C2045      C2063   1.450       .  S
C2046      C2051   1.485       .  S
C2046      C2047   1.410       .  A
C2047      C2048   1.405       .  A
C2047      C2052   1.451       .  S
C2048      C2049   1.411       .  A
C2048      C2064   1.451       .  S
C2049      C2050   1.413       .  A
C2050      C2053   1.451       .  S
C2051      C2054   1.411       .  A
C2051      C2058   1.409       .  A
C2052      N2069   1.157       .  T
C2053      N2071   1.157       .  T
C2054      C2055   1.406       .  A
C2054      C2059   1.451       .  S
C2055      C2056   1.409       .  A
C2055      C2061   1.451       .  S
C2056      C2057   1.411       .  A
C2057      C2058   1.406       .  A
C2057      C2060   1.451       .  S
C2058      C2062   1.451       .  S
C2059      N2066   1.157       .  T
C2060      N2067   1.157       .  T
C2061      N2065   1.157       .  T
C2062      N2068   1.157       .  T
C2063      N2072   1.157       .  T
C2064      N2070   1.157       .  T
C2073      C2074   1.405       .  A
C2073      C2078   1.408       .  A
C2073      C2091   1.453       .  S
C2074      C2079   1.489       .  S
C2074      C2075   1.406       .  A
C2075      C2076   1.411       .  A
C2075      C2080   1.452       .  S
C2076      C2077   1.426       .  A
C2076      C2092   1.451       .  S
C2077      C2078   1.424       .  A
C2078      C2081   1.452       .  S
C2079      C2082   1.409       .  A
C2079      C2086   1.409       .  A
C2080      N2097   1.157       .  T
C2081      N2099   1.157       .  T
C2082      C2083   1.407       .  A
C2082      C2087   1.451       .  S
C2083      C2084   1.415       .  A
C2083      C2089   1.452       .  S
C2084      C2085   1.415       .  A
C2085      C2086   1.409       .  A
C2085      C2088   1.451       .  S
C2086      C2090   1.451       .  S
C2087      N2094   1.157       .  T
C2088      N2095   1.157   1_545  T
C2089      N2093   1.157       .  T
C2090      N2096   1.157       .  T
C2091      N2100   1.157       .  T
C2092      N2098   1.158       .  T
C2101      C2102   1.406       .  A
C2101      C2106   1.408       .  A
C2101      C2119   1.452   1_565  S
C2102      C2107   1.492       .  S
C2102      C2103   1.408       .  A
C2103      C2104   1.412       .  A
C2103      C2108   1.451       .  S
C2104      C2105   1.421   1_455  A
C2104      C2120   1.451   1_455  S
C2105      C2106   1.425   1_655  A
C2106      C2109   1.453   1_465  S
C2107      C2110   1.410       .  A
C2107      C2114   1.410       .  A
C2108      N2125   1.157       .  T
C2109      N2127   1.158       .  T
C2110      C2111   1.410       .  A
C2110      C2115   1.450       .  S
C2111      C2112   1.412       .  A
C2111      C2117   1.450       .  S
C2112      C2113   1.411       .  A
C2113      C2114   1.408       .  A
C2113      C2116   1.450       .  S
C2114      C2118   1.451       .  S
C2115      N2122   1.157       .  T
C2116      N2123   1.157       .  T
C2117      N2121   1.157       .  T
C2118      N2124   1.157       .  T
C2119      N2128   1.157       .  T
C2120      N2126   1.158       .  T
C2129      C2130   1.410       .  A
C2129      C2134   1.411       .  A
C2129      C2147   1.452       .  S
C2130      C2135   1.497       .  S
C2130      C2131   1.410       .  A
C2131      C2132   1.413       .  A
C2131      C2136   1.451       .  S
C2132      C2133   1.418       .  A
C2132      C2148   1.450       .  S
C2133      C2134   1.418       .  A
C2134      C2137   1.451       .  S
C2135      C2138   1.412       .  A
C2135      C2142   1.410       .  A
C2136      N2153   1.157       .  T
C2137      N2155   1.157       .  T
C2138      C2139   1.413       .  A
C2138      C2143   1.450       .  S
C2139      C2140   1.413       .  A
C2139      C2145   1.450       .  S
C2140      C2141   1.415       .  A
C2141      C2142   1.409       .  A
C2141      C2144   1.452       .  S
C2142      C2146   1.451       .  S
C2143      N2150   1.157       .  T
C2144      N2151   1.157       .  T
C2145      N2149   1.157       .  T
C2146      N2152   1.157       .  T
C2147      N2156   1.157       .  T
C2148      N2154   1.157       .  T
C2157      C2158   1.412       .  A
C2157      C2162   1.413       .  A
C2157      C2175   1.451       .  S
C2158      C2163   1.499       .  S
C2158      C2159   1.408       .  A
C2159      C2160   1.410       .  A
C2159      C2164   1.451       .  S
C2160      C2161   1.420       .  A
C2160      C2176   1.452       .  S
C2161      C2162   1.416       .  A
C2162      C2165   1.451       .  S
C2163      C2166   1.410       .  A
C2163      C2170   1.412       .  A
C2164      N2181   1.157       .  T
C2165      N2183   1.157   1_545  T
C2166      C2167   1.412       .  A
C2166      C2171   1.450       .  S
C2167      C2168   1.415       .  A
C2167      C2173   1.451       .  S
C2168      C2169   1.415       .  A
C2169      C2170   1.412       .  A
C2169      C2172   1.452       .  S
C2170      C2174   1.451       .  S
C2171      N2178   1.157       .  T
C2172      N2179   1.158       .  T
C2173      N2177   1.157       .  T
C2174      N2180   1.157       .  T
C2175      N2184   1.157       .  T
C2176      N2182   1.157       .  T
C2185      C2186   1.408   1_545  A
C2185      C2190   1.409       .  A
C2185      C2203   1.451   1_545  S
C2186      C2191   1.492       .  S
C2186      C2187   1.410   1_554  A
C2187      C2188   1.409   1_565  A
C2187      C2192   1.451       .  S
C2188      C2189   1.416   1_556  A
C2188      C2204   1.452       .  S
C2189      C2190   1.416       .  A
C2190      C2193   1.450       .  S
C2191      C2194   1.408       .  A
C2191      C2198   1.410   1_554  A
C2192      N2209   1.157       .  T
C2193      N2211   1.157       .  T
C2194      C2195   1.411       .  A
C2194      C2199   1.451       .  S
C2195      C2196   1.419       .  A
C2195      C2201   1.451       .  S
C2196      C2197   1.415   1_554  A
C2197      C2198   1.408       .  A
C2197      C2200   1.451       .  S
C2198      C2202   1.451       .  S
C2199      N2206   1.157       .  T
C2200      N2207   1.157       .  T
C2201      N2205   1.157       .  T
C2202      N2208   1.157       .  T
C2203      N2212   1.157       .  T
C2204      N2210   1.157       .  T
C2213      C2214   1.411       .  A
C2213      C2218   1.407       .  A
C2213      C2231   1.452       .  S
C2214      C2219   1.493       .  S
C2214      C2215   1.411       .  A
C2215      C2216   1.410       .  A
C2215      C2220   1.450       .  S
C2216      C2217   1.414       .  A
C2216      C2232   1.452       .  S
C2217      C2218   1.413       .  A
C2218      C2221   1.451       .  S
C2219      C2222   1.413       .  A
C2219      C2226   1.411       .  A
C2220      N2237   1.157       .  T
C2221      N2239   1.157       .  T
C2222      C2223   1.408       .  A
C2222      C2227   1.451       .  S
C2223      C2224   1.409       .  A
C2223      C2229   1.451       .  S
C2224      C2225   1.410       .  A
C2225      C2226   1.409       .  A
C2225      C2228   1.450       .  S
C2226      C2230   1.450       .  S
C2227      N2234   1.157       .  T
C2228      N2235   1.157       .  T
C2229      N2233   1.157       .  T
C2230      N2236   1.157       .  T
C2231      N2240   1.157       .  T
C2232      N2238   1.158       .  T
C2241      C2242   1.411       .  A
C2241      C2246   1.409       .  A
C2241      C2259   1.450       .  S
C2242      C2247   1.490       .  S
C2242      C2243   1.410       .  A
C2243      C2244   1.407       .  A
C2243      C2248   1.452       .  S
C2244      C2245   1.414       .  A
C2244      C2260   1.452       .  S
C2245      C2246   1.410       .  A
C2246      C2249   1.450       .  S
C2247      C2250   1.411       .  A
C2247      C2254   1.411       .  A
C2248      N2265   1.157       .  T
C2249      N2267   1.157       .  T
C2250      C2251   1.408       .  A
C2250      C2255   1.451       .  S
C2251      C2252   1.410       .  A
C2251      C2257   1.450       .  S
C2252      C2253   1.410       .  A
C2253      C2254   1.409       .  A
C2253      C2256   1.451       .  S
C2254      C2258   1.450       .  S
C2255      N2262   1.157       .  T
C2256      N2263   1.157       .  T
C2257      N2261   1.157       .  T
C2258      N2264   1.157       .  T
C2259      N2268   1.157       .  T
C2260      N2266   1.157       .  T
C2269      C2270   1.410   1_545  A
C2269      C2274   1.409       .  A
C2269      C2287   1.450   1_545  S
C2270      C2275   1.491       .  S
C2270      C2271   1.410   1_566  A
C2271      C2272   1.408       .  A
C2271      C2276   1.451   1_545  S
C2272      C2273   1.413   1_554  A
C2272      C2288   1.451       .  S
C2273      C2274   1.412       .  A
C2274      C2277   1.451       .  S
C2275      C2278   1.407   1_556  A
C2275      C2282   1.407       .  A
C2276      N2293   1.157       .  T
C2277      N2295   1.157       .  T
C2278      C2279   1.409       .  A
C2278      C2283   1.452       .  S
C2279      C2280   1.422   1_554  A
C2279      C2285   1.452       .  S
C2280      C2281   1.419       .  A
C2281      C2282   1.410       .  A
C2281      C2284   1.451       .  S
C2282      C2286   1.451       .  S
C2283      N2290   1.157       .  T
C2284      N2291   1.157       .  T
C2285      N2289   1.158       .  T
C2286      N2292   1.157       .  T
C2287      N2296   1.157       .  T
C2288      N2294   1.157       .  T
C2297      C2298   1.410       .  A
C2297      C2302   1.411       .  A
C2297      C2315   1.450       .  S
C2298      C2303   1.497       .  S
C2298      C2299   1.411       .  A
C2299      C2300   1.411       .  A
C2299      C2304   1.451       .  S
C2300      C2301   1.414       .  A
C2300      C2316   1.451       .  S
C2301      C2302   1.414       .  A
C2302      C2305   1.450       .  S
C2303      C2306   1.408       .  A
C2303      C2310   1.408       .  A
C2304      N2321   1.157       .  T
C2305      N2323   1.157       .  T
C2306      C2307   1.412       .  A
C2306      C2311   1.451       .  S
C2307      C2308   1.422       .  A
C2307      C2313   1.452       .  S
C2308      C2309   1.420       .  A
C2309      C2310   1.412       .  A
C2309      C2312   1.449       .  S
C2310      C2314   1.452       .  S
C2311      N2318   1.157       .  T
C2312      N2319   1.157       .  T
C2313      N2317   1.157       .  T
C2314      N2320   1.157       .  T
C2315      N2324   1.157       .  T
C2316      N2322   1.157       .  T
C2325      C2326   1.412       .  A
C2325      C2330   1.409       .  A
C2325      C2343   1.451       .  S
C2326      C2331   1.496       .  S
C2326      C2327   1.412       .  A
C2327      C2328   1.410       .  A
C2327      C2332   1.450       .  S
C2328      C2329   1.409       .  A
C2328      C2344   1.450       .  S
C2329      C2330   1.411       .  A
C2330      C2333   1.452       .  S
C2331      C2334   1.411       .  A
C2331      C2338   1.409       .  A
C2332      N2349   1.157       .  T
C2333      N2351   1.157       .  T
C2334      C2335   1.413       .  A
C2334      C2339   1.451       .  S
C2335      C2336   1.416       .  A
C2335      C2341   1.451       .  S
C2336      C2337   1.417       .  A
C2337      C2338   1.408       .  A
C2337      C2340   1.452       .  S
C2338      C2342   1.451       .  S
C2339      N2346   1.157       .  T
C2340      N2347   1.157       .  T
C2341      N2345   1.158       .  T
C2342      N2348   1.157       .  T
C2343      N2352   1.157       .  T
C2344      N2350   1.157       .  T
