geometry optimzed in LAMMPS
_audit_creation_date              2020-11-30 
_audit_creation_method            'lammps2cif' 
_symmetry_space_group_name_H-M    'P1' 
_symmetry_Int_Tables_number       1 
_symmetry_cell_setting            triclinic 
loop_ 
_symmetry_equiv_pos_as_xyz 
  x,y,z 
_cell_length_a                    48.83584907125243 
_cell_length_b                    42.79267520124714 
_cell_length_c                    28.58028131408149 
_cell_angle_alpha                 90.09737670874125 
_cell_angle_beta                  89.24154596870194 
_cell_angle_gamma                 89.79534258686964 
loop_ 
_atom_site_label 
_atom_site_type_symbol 
_atom_site_fract_x 
_atom_site_fract_y 
_atom_site_fract_z 
_atom_site_charge 
C1          C  0.43074412  0.42569410  0.85745169    -0.02720
O2          O  0.48625732  0.48753045  0.42119036    -0.75450
O3          O  0.46078133  0.46375192  0.47869401    -0.54430
C4          C  0.48015111  0.48206715  0.46359221     0.78200
O5          O  0.38340898  0.48818275  0.26839432    -0.60130
O6          O  0.40809456  0.46062728  0.21333373    -0.53160
C7          C  0.39073493  0.48165269  0.22596581     0.70220
O8          O  0.37342430  0.49029567  0.42806796    -0.74690
O9          O  0.39547105  0.46395685  0.48622136    -0.55250
C10         C  0.37762339  0.48391847  0.47164907     0.76220
O11         O  0.48753156  0.48129305  0.27237526    -0.59830
O12         O  0.46552886  0.45313380  0.21668636    -0.52950
C13         C  0.48355287  0.47322304  0.22978719     0.72810
Zr14       Zr  0.47082728  0.46817663  0.34979808     2.54710
O15         O  0.47246466  0.02495857  0.34429611    -0.80400
O16         O  0.02019289  0.45990625  0.35190898    -0.93810
Zr17       Zr  0.39063344  0.47416280  0.34982088     2.64680
O18         O  0.39154267  0.02999051  0.35583058    -0.98770
O19         O  0.34102376  0.47452462  0.34250089    -0.80830
O20         O  0.43022799  0.47330088  0.39623551    -0.84190
O21         O  0.43165401  0.47091703  0.30416722    -2.18900
O22         O  0.48927954  0.36419856  0.29296350    -0.67580
O23         O  0.46582250  0.38664271  0.23298714    -0.52140
C24         C  0.48499914  0.36942595  0.24996991     0.71190
O25         O  0.36635210  0.36895924  0.42029946    -0.60480
O26         O  0.39161659  0.39230254  0.47758481    -0.52460
C27         C  0.37224135  0.37418317  0.46260948     0.73000
O28         O  0.36830038  0.37504075  0.27166305    -0.71880
O29         O  0.39867965  0.39056681  0.21608691    -0.50560
C30         C  0.37617139  0.37682867  0.22892036     0.74380
O31         O  0.48263143  0.36802982  0.43959028    -0.67210
O32         O  0.45606129  0.39400343  0.49317605    -0.54410
C33         C  0.47561723  0.37471630  0.48183739     0.72760
Zr34       Zr  0.46474014  0.37690587  0.36202349     2.77540
O35         O  0.44277992  0.32736271  0.37709658    -0.97960
O36         O  0.00879753  0.35019650  0.36554557    -0.78780
Zr37       Zr  0.38598332  0.38381829  0.34885663     2.70070
O38         O  0.38475314  0.32698144  0.34610091    -0.80030
O39         O  0.33631170  0.38965862  0.35228813    -0.99110
Zr40       Zr  0.42652340  0.42816583  0.44499140     2.21500
Zr41       Zr  0.43144565  0.42296233  0.26100491     2.11130
O42         O  0.42779038  0.37707987  0.30793044    -2.47800
O43         O  0.42309119  0.38072711  0.40225535    -0.79820
O44         O  0.47010081  0.42029394  0.31059658    -0.72020
O45         O  0.38717981  0.42936777  0.39602863    -2.32970
O46         O  0.46819216  0.42470472  0.40125576    -2.29180
O47         O  0.38910768  0.42864136  0.30267335    -0.73770
H48         H  0.43354142  0.48885559  0.28394211     0.78220
H49         H  0.37051995  0.43058738  0.41451727     0.79310
H50         H  0.42757857  0.35851533  0.28865545     0.81540
H51         H  0.48401375  0.42457305  0.42112849     0.79140
H52         H  0.33419778  0.46182745  0.36909769     0.42180
H53         H  0.33187786  0.40468950  0.32717656     0.41150
H54         H  0.38557127  0.31995031  0.37903894     0.40830
H55         H  0.43546233  0.32158675  0.34636169     0.38760
H56         H  0.02231939  0.36705965  0.37042796     0.41890
H57         H  0.02352398  0.44744034  0.38043196     0.36680
H58         H  0.45960494  0.03256511  0.36888502     0.42790
H59         H  0.41024856  0.03396808  0.34379721     0.39210
H60         H  0.45805190  0.31262776  0.38241671     0.44130
H61         H  0.02794992  0.48072666  0.35887545     0.42850
H62         H  0.37908788  0.03729021  0.33105965     0.42990
H63         H  0.32902391  0.36942529  0.34124012     0.43340
O64         O  0.48186797  0.23977884  0.92218457    -0.75530
O65         O  0.46151355  0.21217987  0.98158540    -0.54430
C66         C  0.47885773  0.23188704  0.96486722     0.78200
O67         O  0.36703058  0.23308449  0.79246407    -0.60130
O68         O  0.39009576  0.20739724  0.73363985    -0.53160
C69         C  0.37185801  0.22662923  0.74956978     0.70220
O70         O  0.36879309  0.22753320  0.94385302    -0.74690
O71         O  0.39766934  0.20577316  0.99668148    -0.55250
C72         C  0.37671874  0.22253099  0.98567130     0.76220
O73         O  0.47792842  0.23460903  0.77005278    -0.59830
O74         O  0.45335935  0.20616842  0.71788805    -0.52950
C75         C  0.47214399  0.22595733  0.72825891     0.72810
Zr76       Zr  0.46252261  0.22500809  0.85011042     2.54710
O77         O  0.44975283  0.27995512  0.84708152    -0.80400
O78         O  0.01095793  0.23576381  0.83830492    -0.93810
Zr79       Zr  0.38306415  0.21483776  0.86530462     2.64680
O80         O  0.37405138  0.26903936  0.88584981    -0.98770
O81         O  0.33409126  0.20473851  0.86227994    -0.80830
O82         O  0.42493551  0.22179541  0.90379226    -0.84190
O83         O  0.42071816  0.22132492  0.81192815    -2.18900
O84         O  0.48640954  0.12092843  0.78415055    -0.67580
O85         O  0.45883911  0.14237637  0.72866703    -0.52140
C86         C  0.47952125  0.12619727  0.74248594     0.71190
O87         O  0.38517948  0.10761885  0.94163929    -0.60480
O88         O  0.40894751  0.13563916  0.99599250    -0.52460
C89         C  0.39240283  0.11406059  0.98371580     0.73000
O90         O  0.37224237  0.11211827  0.78174650    -0.71880
O91         O  0.39354910  0.14088373  0.72479453    -0.50560
C92         C  0.37584980  0.12063366  0.73857563     0.74380
O93         O  0.48945849  0.12185133  0.93253572    -0.67210
O94         O  0.46522316  0.14654694  0.99038528    -0.54410
C95         C  0.48439182  0.12822300  0.97546313     0.72760
Zr96       Zr  0.47020298  0.13355840  0.85781761     2.77540
O97         O  0.47446404  0.07697803  0.85847710    -0.97960
O98         O  0.01971661  0.13997003  0.85443737    -0.78780
Zr99       Zr  0.39060285  0.12353382  0.86069917     2.70070
O100        O  0.39562150  0.06709606  0.85495369    -0.80030
O101        O  0.34126905  0.11845177  0.87053911    -0.99110
Zr102      Zr  0.43007044  0.17539629  0.94875729     2.21500
Zr103      Zr  0.42430969  0.17391736  0.76820719     2.11130
O104        O  0.42989901  0.12713530  0.81275254    -2.47800
O105        O  0.43132496  0.12790207  0.90519179    -0.79820
O106        O  0.46589810  0.17793075  0.80900260    -0.72020
O107        O  0.38768272  0.16884505  0.90902101    -2.32970
O108        O  0.46893690  0.18044879  0.89857837    -2.29180
O109        O  0.38492050  0.16963633  0.81757892    -0.73770
H110        H  0.41879230  0.23948699  0.79221516     0.78220
H111        H  0.37254814  0.16684164  0.93090181     0.79310
H112        H  0.43120288  0.10895574  0.79277315     0.81540
H113        H  0.48594364  0.18172703  0.91528285     0.79140
H114        H  0.33128925  0.18594059  0.88185114     0.42180
H115        H  0.33337500  0.13169564  0.84571038     0.41150
H116        H  0.40632057  0.06109818  0.88274171     0.40830
H117        H  0.45817863  0.06960394  0.87612703     0.38760
H118        H  0.02259383  0.15984231  0.83740174     0.41890
H119        H  0.02007512  0.21925682  0.85669124     0.36680
H120        H  0.44437142  0.28531565  0.87964612     0.42790
H121        H  0.39166142  0.27982485  0.88034164     0.39210
H122        H  0.49024089  0.07224785  0.87869308     0.44130
H123        H  0.01458958  0.25541870  0.85536065     0.42850
H124        H  0.36137337  0.27690190  0.86184276     0.42990
H125        H  0.33727938  0.09677826  0.86061799     0.43340
O126        O  0.20471956  0.47808749  0.97431958    -0.75530
O127        O  0.24164998  0.46447544  0.92804508    -0.54430
C128        C  0.23011988  0.47710312  0.96569467     0.78200
O129        O  0.12977050  0.36877537  0.94555107    -0.60130
O130        O  0.09425526  0.39086747  0.90577775    -0.53160
C131        C  0.10445021  0.37327713  0.93802182     0.70220
O132        O  0.21843866  0.37244102  0.95735203    -0.74690
O133        O  0.25319341  0.39667959  0.91725007    -0.55250
C134        C  0.24385457  0.37887372  0.95065088     0.76220
O135        O  0.12541750  0.49940084  0.91696182    -0.59830
O136        O  0.09529351  0.46087542  0.91444190    -0.52950
C137        C  0.10379665  0.48675294  0.93301801     0.72810
Zr138      Zr  0.16968635  0.47478802  0.92048107     2.54710
O139        O  0.15336508  0.47701088  0.00140599    -0.80400
O140        O  0.18442111  0.02889937  0.91844057    -0.93810
Zr141      Zr  0.17445141  0.38306697  0.92204121     2.64680
O142        O  0.17381417  0.38146425  0.00714616    -0.98770
O143        O  0.17661671  0.32653765  0.91274953    -0.80830
O144        O  0.19832266  0.43006374  0.92211299    -0.84190
O145        O  0.14514740  0.42769339  0.92194787    -2.18900
O146        O  0.13093354  0.48737670  0.76094292    -0.67580
O147        O  0.09517185  0.46276424  0.79779355    -0.52140
C148        C  0.10559370  0.48128049  0.76665375     0.71190
O149        O  0.22030747  0.37026893  0.76106188    -0.60480
O150        O  0.25441582  0.39321724  0.80306583    -0.52460
C151        C  0.24543844  0.37538425  0.76956869     0.73000
O152        O  0.13282347  0.37039838  0.75215325    -0.71880
O153        O  0.09716087  0.39499898  0.78973747    -0.50560
C154        C  0.10736290  0.37717290  0.75683541     0.74380
O155        O  0.21906408  0.48152617  0.75203103    -0.67210
O156        O  0.25364263  0.46114085  0.79545819    -0.54410
C157        C  0.24440110  0.47604894  0.75896336     0.72760
Zr158      Zr  0.17526689  0.47358440  0.78780747     2.77540
O159        O  0.17307300  0.47573616  0.70272173    -0.97960
O160        O  0.18039626  0.02990108  0.79319136    -0.78780
Zr161      Zr  0.17555328  0.38237298  0.78893762     2.70070
O162        O  0.18068629  0.37769700  0.70446518    -0.80030
O163        O  0.17316599  0.32633786  0.80117621    -0.99110
Zr164      Zr  0.22970136  0.42974513  0.85836697     2.21500
Zr165      Zr  0.11802202  0.42739578  0.85260211     2.11130
O166        O  0.14857286  0.42788477  0.78627242    -2.47800
O167        O  0.20224303  0.42816183  0.78989358    -0.79820
O168        O  0.14412915  0.47472515  0.85168862    -0.72020
O169        O  0.20351064  0.38230502  0.85611029    -2.32970
O170        O  0.20157455  0.47589616  0.85642063    -2.29180
O171        O  0.14637798  0.38122572  0.85497184    -0.73770
H172        H  0.13366180  0.42766852  0.94970371     0.78220
H173        H  0.21521403  0.36405971  0.85667497     0.79310
H174        H  0.13857015  0.42816089  0.75740184     0.81540
H175        H  0.21313998  0.49414253  0.85642206     0.79140
H176        H  0.19636555  0.32127871  0.91351325     0.42180
H177        H  0.15374296  0.32241239  0.80955134     0.41150
H178        H  0.18527981  0.39908915  0.69385575     0.40830
H179        H  0.15808999  0.46154410  0.69356287     0.38760
H180        H  0.18098644  0.03715071  0.76031288     0.41890
H181        H  0.18654094  0.03266750  0.88461215     0.36680
H182        H  0.15725403  0.45605040  0.01441667     0.42790
H183        H  0.15620246  0.39112987  0.01696156     0.39210
H184        H  0.16646571  0.49701204  0.69516517     0.44130
H185        H  0.20335872  0.02949363  0.93024644     0.42850
H186        H  0.17181704  0.35899440  0.01451049     0.42990
H187        H  0.17544239  0.31728028  0.76944909     0.43340
C188        C  0.17658045  0.17363306  0.85908543    -0.02720
C189        C  0.17533749  0.42564948  0.35108802    -0.02720
C190        C  0.42886810  0.17491505  0.34259163    -0.02720
O191        O  0.49490805  0.12122298  0.66745596    -0.75530
O192        O  0.01412322  0.09126705  0.72464087    -0.54430
C193        C  0.99727183  0.11201358  0.70924386     0.78200
O194        O  0.49099097  0.99288472  0.53930186    -0.60130
O195        O  0.01670836  0.01601694  0.48134473    -0.53160
C196        C  0.99714667  0.99805942  0.49678061     0.70220
O197        O  0.49272846  0.99742378  0.68918614    -0.74690
O198        O  0.01788393  0.02345892  0.74337143    -0.55250
C199        C  0.99938139  0.00371183  0.73143661     0.76220
O200        O  0.50217982  0.11911947  0.52060957    -0.59830
O201        O  0.02047659  0.08605242  0.46700762    -0.52950
C202        C  0.00449603  0.10928516  0.47852405     0.72810
Zr203      Zr  0.01415352  0.10213203  0.59820178     2.54710
O204        O  0.46446017  0.09799606  0.59531720    -0.80400
O205        O  0.01719332  0.15811152  0.58937336    -0.93810
Zr206      Zr  0.00694296  0.01219198  0.61052282     2.64680
O207        O  0.45820440  0.02456265  0.61324132    -0.98770
O208        O  0.99925478  0.45647861  0.61927170    -0.80830
O209        O  0.00934125  0.05944410  0.65076532    -0.84190
O210        O  0.01029451  0.05519715  0.55793997    -2.18900
O211        O  0.11279841  0.10952970  0.53632411    -0.67580
O212        O  0.08653897  0.08742465  0.47931704    -0.52140
C213        C  0.10642300  0.10500917  0.49399813     0.71190
O214        O  0.09598493  0.98946178  0.68865948    -0.60480
O215        O  0.07217906  0.01756330  0.74425718    -0.52460
C216        C  0.08910864  0.99618647  0.73138879     0.73000
O217        O  0.10350843  0.98821430  0.52673358    -0.71880
O218        O  0.08210214  0.01646594  0.46978891    -0.50560
C219        C  0.09952432  0.99573035  0.48338728     0.74380
O220        O  0.10960994  0.10845091  0.68506489    -0.67210
O221        O  0.08134543  0.08840520  0.74122757    -0.54410
C222        C  0.10221463  0.10489565  0.72792901     0.72760
Zr223      Zr  0.09370826  0.09411539  0.60827923     2.77540
O224        O  0.14308876  0.08691400  0.61252030    -0.97960
O225        O  0.09446826  0.15091820  0.60573021    -0.78780
Zr226      Zr  0.08707436  0.00272736  0.60667950     2.70070
O227        O  0.13647441  0.99582277  0.61037168    -0.80030
O228        O  0.07966333  0.44667244  0.60480598    -0.99110
Zr229      Zr  0.04914192  0.05553409  0.69694358     2.21500
Zr230      Zr  0.05153817  0.05164251  0.51319303     2.11130
O231        O  0.09125876  0.04840828  0.56134606    -2.47800
O232        O  0.09065527  0.04861559  0.65347865    -0.79820
O233        O  0.05571128  0.09838338  0.55707980    -0.72020
O234        O  0.04699430  0.00785471  0.65369948    -2.32970
O235        O  0.05240457  0.10124979  0.64975834    -2.29180
O236        O  0.04688665  0.00612027  0.56184366    -0.73770
H237        H  0.49437464  0.05618318  0.53830540     0.78220
H238        H  0.04525601  0.48995440  0.67400407     0.79310
H239        H  0.10773196  0.04705730  0.54238624     0.81540
H240        H  0.05302794  0.12000958  0.66857430     0.79140
H241        H  0.01399939  0.44939888  0.64020886     0.42180
H242        H  0.06309244  0.44436223  0.58562764     0.41150
H243        H  0.14363741  0.01715441  0.61546916     0.40830
H244        H  0.14846849  0.07584801  0.58334921     0.38760
H245        H  0.08362854  0.15646709  0.57789827     0.41890
H246        H  0.03298512  0.16251051  0.60941070     0.36680
H247        H  0.45889788  0.08711987  0.62444797     0.42790
H248        H  0.45350853  0.03058342  0.58088316     0.39210
H249        H  0.15054576  0.10824951  0.60878068     0.44130
H250        H  0.50113084  0.16677077  0.60652119     0.42850
H251        H  0.44910503  0.00415395  0.61802889     0.42990
H252        H  0.09466434  0.43843373  0.58462828     0.43340
O253        O  0.49699989  0.35678922  0.02306038    -0.75530
O254        O  0.02019021  0.33162761  0.96559503    -0.54430
C255        C  0.00195961  0.35112097  0.97972963     0.78200
O256        O  0.11195159  0.35764402  0.17542770    -0.60130
O257        O  0.08763742  0.33345642  0.23370808    -0.53160
C258        C  0.10696295  0.35134836  0.21903545     0.70220
O259        O  0.09646652  0.36256699  0.01547102    -0.74690
O260        O  0.07072851  0.33709148  0.96132027    -0.55250
C261        C  0.08813493  0.35773126  0.97339261     0.76220
O262        O  0.49682931  0.35993268  0.17495445    -0.59830
O263        O  0.02250469  0.33654066  0.23133882    -0.52950
C264        C  0.00291050  0.35433392  0.21705203     0.72810
Zr265      Zr  0.01308777  0.34602116  0.10111006     2.54710
O266        O  0.01925821  0.40175120  0.09926010    -0.80400
O267        O  0.46336283  0.35142372  0.10480785    -0.93810
Zr268      Zr  0.09307245  0.34640612  0.09717206     2.64680
O269        O  0.09498786  0.40325253  0.09691006    -0.98770
O270        O  0.14248654  0.34355065  0.08649875    -0.80830
O271        O  0.05215404  0.34612864  0.05378661    -0.84190
O272        O  0.05380811  0.34836684  0.14586841    -2.18900
O273        O  0.50294432  0.23989441  0.19236857    -0.67580
O274        O  0.02872458  0.26765575  0.24352509    -0.52140
C275        C  0.01055230  0.24694765  0.23394147     0.71190
O276        O  0.10818575  0.24307438  0.01790560    -0.60480
O277        O  0.08348010  0.26980889  0.96436881    -0.52460
C278        C  0.10327762  0.25159194  0.97596200     0.73000
O279        O  0.11115538  0.24226915  0.16783424    -0.71880
O280        O  0.08976176  0.26955442  0.22651643    -0.50560
C281        C  0.10779331  0.25029380  0.21029321     0.74380
O282        O  0.49331775  0.23921484  0.03956641    -0.67210
O283        O  0.01575486  0.26421751  0.97960274    -0.54410
C284        C  0.99726101  0.24599616  0.99664727     0.72760
Zr285      Zr  0.01153679  0.25543989  0.11153928     2.77540
O286        O  0.00131383  0.19998408  0.11560445    -0.97960
O287        O  0.46320627  0.26836275  0.12172542    -0.78780
Zr288      Zr  0.09107265  0.25376078  0.09538895     2.70070
O289        O  0.08051953  0.19828177  0.09267855    -0.80030
O290        O  0.13976687  0.24169081  0.08911081    -0.99110
Zr291      Zr  0.04973873  0.29865853  0.01105619     2.21500
Zr292      Zr  0.05515552  0.30186949  0.19187031     2.11130
O293        O  0.05383132  0.25394359  0.14942365    -2.47800
O294        O  0.04907062  0.25191121  0.05667714    -0.79820
O295        O  0.01288055  0.30255620  0.15233817    -0.72020
O296        O  0.09211335  0.30025496  0.05134646    -2.32970
O297        O  0.01013845  0.29913599  0.06061861    -2.29180
O298        O  0.09403991  0.30001764  0.14099822    -0.73770
H299        H  0.05403116  0.36686654  0.16528662     0.78220
H300        H  0.10768788  0.30098203  0.03023887     0.79310
H301        H  0.05490691  0.23609348  0.16996129     0.81540
H302        H  0.49329816  0.29929753  0.04330493     0.79140
H303        H  0.14691673  0.32103448  0.08920306     0.42180
H304        H  0.14888611  0.25727107  0.10913843     0.41150
H305        H  0.07538624  0.19266676  0.12520308     0.40830
H306        H  0.01324094  0.19189757  0.14054655     0.38760
H307        H  0.46116196  0.27486161  0.15485974     0.41890
H308        H  0.45639884  0.33858707  0.07870943     0.36680
H309        H  0.02949263  0.40429212  0.06940177     0.42790
H310        H  0.07957754  0.40996182  0.11742348     0.39210
H311        H  0.48252713  0.19883521  0.12893020     0.44130
H312        H  0.45957920  0.37328421  0.09559783     0.42850
H313        H  0.11170043  0.40853170  0.11443459     0.42990
H314        H  0.14251485  0.22134124  0.10481409     0.43340
O315        O  0.35139779  0.48046509  0.02509858    -0.75530
O316        O  0.38090107  0.01970601  0.03499228    -0.54430
C317        C  0.37260969  0.99500190  0.01252989     0.78200
O318        O  0.26155861  0.10486309  0.00255426    -0.60130
O319        O  0.22643433  0.07913083  0.03880671    -0.53160
C320        C  0.23614920  0.09746556  0.00602370     0.70220
O321        O  0.35028350  0.10341962  0.01150740    -0.74690
O322        O  0.38605767  0.08383063  0.05304456    -0.55250
C323        C  0.37574767  0.09936885  0.01903248     0.76220
O324        O  0.27203018  0.48877474  0.99374685    -0.59830
O325        O  0.23561703  0.00880131  0.03603249    -0.52950
C326        C  0.24673756  0.99244420  0.00129350     0.72810
Zr327      Zr  0.30858727  0.00521605  0.03707089     2.54710
O328        O  0.31557292  0.03031921  0.96082817    -0.80400
O329        O  0.30101840  0.44910130  0.02755731    -0.93810
Zr330      Zr  0.30487887  0.09637587  0.04121493     2.64680
O331        O  0.31355826  0.11883843  0.96435949    -0.98770
O332        O  0.30079320  0.15008256  0.06836551    -0.80830
O333        O  0.33359239  0.05153900  0.03777518    -0.84190
O334        O  0.27987743  0.04947643  0.03630333    -2.18900
O335        O  0.26048915  0.49196019  0.20584758    -0.67580
O336        O  0.22592040  0.01491925  0.16491182    -0.52140
C337        C  0.23517305  0.99854504  0.20010858     0.71190
O338        O  0.34870253  0.10772037  0.20176397    -0.60480
O339        O  0.38385298  0.08443743  0.16089804    -0.52460
C340        C  0.37421163  0.10312688  0.19293444     0.73000
O341        O  0.25952372  0.10589804  0.19900135    -0.71880
O342        O  0.22509370  0.08405152  0.15610862    -0.50560
C343        C  0.23433758  0.10151774  0.18981394     0.74380
O344        O  0.34871862  0.49199491  0.19900041    -0.67210
O345        O  0.38449757  0.01288784  0.15746652    -0.54410
C346        C  0.37412629  0.99642769  0.19101782     0.72760
Zr347      Zr  0.30431267  0.00181788  0.16968755     2.77540
O348        O  0.31147409  0.99177896  0.25253616    -0.97960
O349        O  0.30252844  0.44602635  0.15320811    -0.78780
Zr350      Zr  0.30448203  0.09279157  0.17291781     2.70070
O351        O  0.30290645  0.09243275  0.25808800    -0.80030
O352        O  0.30507463  0.14930316  0.16613110    -0.99110
Zr353      Zr  0.36120850  0.04894652  0.10494659     2.21500
Zr354      Zr  0.24921378  0.04688864  0.10133676     2.11130
O355        O  0.27739761  0.04740479  0.17007470    -2.47800
O356        O  0.33154288  0.04737167  0.17230964    -0.79820
O357        O  0.27776747  0.00129928  0.10142115    -0.72020
O358        O  0.33334871  0.09549075  0.10696372    -2.32970
O359        O  0.33464614  0.00212459  0.10518823    -2.29180
O360        O  0.27569720  0.09435403  0.10673582    -0.73770
H361        H  0.27028043  0.04909743  0.00705206     0.78220
H362        H  0.34455383  0.11403174  0.10787654     0.79310
H363        H  0.26630159  0.04793791  0.19820569     0.81540
H364        H  0.34594973  0.48359288  0.10658617     0.79140
H365        H  0.31990807  0.15730210  0.07169664     0.42180
H366        H  0.28556844  0.15566685  0.16664574     0.41150
H367        H  0.31355459  0.07367003  0.26693851     0.40830
H368        H  0.30728769  0.01183028  0.26841303     0.38760
H369        H  0.28277513  0.44141444  0.15022464     0.41890
H370        H  0.28850832  0.44376985  0.05382290     0.36680
H371        H  0.33552482  0.03345683  0.95631838     0.42790
H372        H  0.31152303  0.10098875  0.94268952     0.39210
H373        H  0.29702716  0.47708720  0.26288985     0.44130
H374        H  0.31829477  0.43840132  0.03574191     0.42850
H375        H  0.29809831  0.13308710  0.95773510     0.42990
H376        H  0.31226854  0.15622175  0.19660948     0.43340
C377        C  0.30420398  0.30581347  0.09711052    -0.02720
C378        C  0.04809798  0.30241198  0.61235471    -0.02720
O379        O  0.12141255  0.23675983  0.43714088    -0.75530
O380        O  0.14505748  0.21021572  0.49208305    -0.54430
C381        C  0.12598585  0.22997346  0.48024107     0.78200
O382        O  0.12238432  0.11898684  0.26852163    -0.60130
O383        O  0.14593546  0.14422062  0.21171899    -0.53160
C384        C  0.12779214  0.12407950  0.22514499     0.70220
O385        O  0.11798955  0.11623478  0.41791528    -0.74690
O386        O  0.14277941  0.13994573  0.47554662    -0.55250
C387        C  0.12357546  0.12153488  0.46042755     0.76220
O388        O  0.12172165  0.24255008  0.28530347    -0.59830
O389        O  0.14282212  0.21508827  0.22593074    -0.52950
C390        C  0.12554123  0.23523950  0.24251041     0.72810
Zr391      Zr  0.13718089  0.22357296  0.35766021     2.54710
O392        O  0.08785831  0.21638404  0.35403820    -0.80400
O393        O  0.13518908  0.28006552  0.36648567    -0.93810
Zr394      Zr  0.13720737  0.13304567  0.34674226     2.64680
O395        O  0.08742856  0.13207330  0.34520837    -0.98770
O396        O  0.14411226  0.07710059  0.34375402    -0.80830
O397        O  0.13695465  0.17658558  0.39886537    -0.84190
O398        O  0.13617198  0.17994569  0.30565026    -2.18900
O399        O  0.23205294  0.23930745  0.26766967    -0.67580
O400        O  0.20795136  0.21355935  0.21185437    -0.52140
C401        C  0.22664584  0.23316777  0.22460895     0.71190
O402        O  0.23261005  0.11669262  0.42828698    -0.60480
O403        O  0.20994980  0.14268208  0.48626158    -0.52460
C404        C  0.22845770  0.12283188  0.47234269     0.73000
O405        O  0.22312935  0.11249888  0.26731241    -0.71880
O406        O  0.20078873  0.13988476  0.21051152    -0.50560
C407        C  0.21687132  0.11794059  0.22417514     0.74380
O408        O  0.23618933  0.23772130  0.41932967    -0.67210
O409        O  0.21250204  0.21236083  0.47764612    -0.54410
C410        C  0.23141790  0.23128892  0.46225479     0.72760
Zr411      Zr  0.21693166  0.22318375  0.34625849     2.77540
O412        O  0.26661856  0.22402282  0.34691414    -0.97960
O413        O  0.21133384  0.27963026  0.34720686    -0.78780
Zr414      Zr  0.21666008  0.13094116  0.34839168     2.70070
O415        O  0.26620437  0.13115210  0.33813465    -0.80030
O416        O  0.21319339  0.07461080  0.35721122    -0.99110
Zr417      Zr  0.17756563  0.17694450  0.44402416     2.21500
Zr418      Zr  0.17626438  0.17907467  0.25671269     2.11130
O419        O  0.21753759  0.17693129  0.30105328    -2.47800
O420        O  0.21703850  0.17724013  0.39327589    -0.79820
O421        O  0.17572328  0.22502091  0.30495938    -0.72020
O422        O  0.17654739  0.13115801  0.39520515    -2.32970
O423        O  0.17842973  0.22396877  0.39882992    -2.29180
O424        O  0.17716886  0.13208191  0.30114453    -0.73770
H425        H  0.11966537  0.18028604  0.28742594     0.78220
H426        H  0.17616757  0.11244470  0.41406801     0.79310
H427        H  0.23341969  0.17644706  0.28054914     0.81540
H428        H  0.17898417  0.24216463  0.41884466     0.79140
H429        H  0.15535952  0.07393399  0.31505511     0.42180
H430        H  0.20988980  0.06666054  0.32525964     0.41150
H431        H  0.27246929  0.14857080  0.35812024     0.40830
H432        H  0.27227476  0.20512325  0.32926688     0.38760
H433        H  0.20643072  0.28518630  0.31476206     0.41890
H434        H  0.14407675  0.28449809  0.39669640     0.36680
H435        H  0.08442396  0.19644787  0.37058214     0.42790
H436        H  0.08220961  0.14587455  0.31900208     0.39210
H437        H  0.27208964  0.24185216  0.32689035     0.44130
H438        H  0.11557042  0.28487273  0.37212359     0.42850
H439        H  0.08301024  0.11074687  0.33427180     0.42990
H440        H  0.23203521  0.06781219  0.36457266     0.43340
O441        O  0.35877314  0.23534871  0.67375500    -0.75530
O442        O  0.33856105  0.26378868  0.73292375    -0.54430
C443        C  0.35528861  0.24300480  0.71660468     0.78200
O444        O  0.36169545  0.36249004  0.53823787    -0.60130
O445        O  0.33671869  0.33858561  0.48113976    -0.53160
C446        C  0.35557219  0.35742235  0.49600714     0.70220
O447        O  0.36178860  0.36043963  0.68497560    -0.74690
O448        O  0.33873423  0.33407429  0.74224917    -0.55250
C449        C  0.35669218  0.35442899  0.72808621     0.76220
O450        O  0.35897200  0.23925634  0.52152341    -0.59830
O451        O  0.33547204  0.26709240  0.46717702    -0.52950
C452        C  0.35432564  0.24694359  0.47875640     0.72810
Zr453      Zr  0.34215954  0.25247298  0.60035784     2.54710
O454        O  0.39165380  0.24650431  0.60335527    -0.80400
O455        O  0.33394800  0.19744150  0.58862144    -0.93810
Zr456      Zr  0.34622226  0.34273134  0.60968908     2.64680
O457        O  0.39528949  0.33213683  0.61030750    -0.98770
O458        O  0.35006579  0.39912424  0.61190212    -0.80830
O459        O  0.34542880  0.29617294  0.65190709    -0.84190
O460        O  0.34442318  0.29916904  0.55820425    -2.18900
O461        O  0.24376448  0.24164350  0.53895917    -0.67580
O462        O  0.26826586  0.26582543  0.48045887    -0.52140
C463        C  0.24907337  0.24728253  0.49593603     0.71190
O464        O  0.25660941  0.36476838  0.69162125    -0.60480
O465        O  0.28037898  0.33847646  0.74792722    -0.52460
C466        C  0.26317957  0.35950441  0.73470774     0.73000
O467        O  0.24887897  0.36231121  0.53051516    -0.71880
O468        O  0.27288755  0.33823782  0.47210500    -0.50560
C469        C  0.25411807  0.35772803  0.48627901     0.74380
O470        O  0.24917222  0.23930295  0.69000529    -0.67210
O471        O  0.27438431  0.26421317  0.74523136    -0.54410
C472        C  0.25564622  0.24446544  0.73280933     0.72760
Zr473      Zr  0.26235698  0.25747028  0.61215049     2.77540
O474        O  0.21347613  0.26716759  0.62117628    -0.97960
O475        O  0.25965707  0.20071065  0.60955100    -0.78780
Zr476      Zr  0.26622987  0.34889308  0.61002937     2.70070
O477        O  0.21699768  0.35720093  0.61637508    -0.80030
O478        O  0.27778753  0.40365987  0.60632920    -0.99110
Zr479      Zr  0.30565212  0.29980817  0.70110645     2.21500
Zr480      Zr  0.30318578  0.30123145  0.51412918     2.11130
O481        O  0.26351197  0.30295468  0.56466736    -2.47800
O482        O  0.26412513  0.30336524  0.65783888    -0.79820
O483        O  0.30073803  0.25451849  0.55957393    -0.72020
O484        O  0.30638023  0.34635734  0.65566921    -2.32970
O485        O  0.30374010  0.25373238  0.65303228    -2.29180
O486        O  0.30622137  0.34663334  0.56294846    -0.73770
H487        H  0.36048038  0.29893019  0.53813183     0.78220
H488        H  0.30771222  0.36470359  0.67520430     0.79310
H489        H  0.24699873  0.30375180  0.54649386     0.81540
H490        H  0.30354623  0.23507143  0.67200557     0.79140
H491        H  0.33243553  0.40586621  0.62605142     0.42180
H492        H  0.28479158  0.40664963  0.57399546     0.41150
H493        H  0.20994968  0.33780550  0.63096215     0.40830
H494        H  0.20743744  0.27469332  0.59023198     0.38760
H495        H  0.26917416  0.19467857  0.58007996     0.41890
H496        H  0.31809177  0.19395679  0.60969043     0.36680
H497        H  0.39832703  0.26686732  0.61497129     0.42790
H498        H  0.39987032  0.32428577  0.57854185     0.39210
H499        H  0.20552334  0.24601758  0.62422421     0.44130
H500        H  0.34954029  0.18684908  0.60376816     0.42850
H501        H  0.40388520  0.35303630  0.61167495     0.42990
H502        H  0.25981947  0.41421201  0.60699287     0.43340
C503        C  0.30243589  0.05069162  0.60880406    -0.02720
C504        C  0.05213920  0.05002645  0.10078809    -0.02720
C505        C  0.07165909  0.07121033  0.18151351    -0.02080
C506        C  0.07215967  0.07187981  0.13136335     0.07600
C507        C  0.09106341  0.09483762  0.11209795    -0.02200
C508        C  0.10853315  0.11280432  0.14202251    -0.02200
C509        C  0.11100420  0.10536029  0.19026908     0.07730
C510        C  0.09421798  0.08088325  0.20701933    -0.02390
Br511      Br  0.10056676  0.05827671  0.26444679    -0.00940
Br512      Br  0.03860509  0.07157539  0.21999461    -0.01010
Br513      Br  0.12820065  0.14801524  0.11637006    -0.00970
Br514      Br  0.09211590  0.10561472  0.04605103    -0.00960
C515        C  0.26949467  0.08792465  0.49386734    -0.02080
C516        C  0.24617658  0.10521498  0.50860633     0.07600
C517        C  0.23964482  0.10312849  0.55743765    -0.02200
C518        C  0.25650040  0.08561531  0.58948365    -0.02200
C519        C  0.28045046  0.06817295  0.57403306     0.07730
C520        C  0.28195051  0.06577106  0.52342460    -0.02390
Br521      Br  0.28946840  0.02746663  0.48871811    -0.00940
Br522      Br  0.28672590  0.09377439  0.43307512    -0.01010
Br523      Br  0.24525145  0.08680186  0.65439505    -0.00970
Br524      Br  0.20812123  0.12533645  0.58243886    -0.00960
C525        C  0.06882623  0.28348945  0.52844269    -0.02080
C526        C  0.07119521  0.28522128  0.57857611     0.07600
C527        C  0.09642909  0.27071088  0.59481443    -0.02200
C528        C  0.11473518  0.25374555  0.56349221    -0.02200
C529        C  0.10743985  0.24700971  0.51656550     0.07730
C530        C  0.08221578  0.25995873  0.50221399    -0.02390
Br531      Br  0.06335353  0.24528771  0.44750881    -0.00940
Br532      Br  0.05920701  0.31825830  0.48827947    -0.01010
Br533      Br  0.14943992  0.23878689  0.58595101    -0.00970
Br534      Br  0.10653562  0.27024049  0.65995694    -0.00960
C535        C  0.29132554  0.26094091  0.15931411    -0.02080
C536        C  0.28197073  0.28477881  0.12674737     0.07600
C537        C  0.25214749  0.28670628  0.12368725    -0.02200
C538        C  0.23455486  0.27099085  0.15647360    -0.02200
C539        C  0.24470290  0.24900027  0.18826294     0.07730
C540        C  0.27298492  0.24346376  0.18813235    -0.02390
Br541      Br  0.28670763  0.21193821  0.23054695    -0.00940
Br542      Br  0.32930345  0.25167813  0.17118424    -0.01010
Br543      Br  0.19590563  0.28075550  0.16030909    -0.00970
Br544      Br  0.23195888  0.30450647  0.07215029    -0.00960
C545        C  0.41214512  0.12206976  0.30208348    -0.02080
C546        C  0.41297736  0.15560980  0.30349178     0.07600
C547        C  0.39961783  0.17088127  0.26485450    -0.02200
C548        C  0.38973937  0.15368589  0.22613737    -0.02200
C549        C  0.39262311  0.12109995  0.22393973     0.07730
C550        C  0.40533219  0.10576060  0.26079342    -0.02390
Br551      Br  0.41305035  0.06179367  0.25408323    -0.00940
Br552      Br  0.41249941  0.09665441  0.35728537    -0.01010
Br553      Br  0.37333849  0.17470463  0.17334365    -0.00970
Br554      Br  0.39199359  0.21483302  0.26315845    -0.00960
C555        C  0.46931467  0.18402176  0.28174217    -0.02080
C556        C  0.44974313  0.19753056  0.31386904     0.07600
C557        C  0.45133257  0.23146273  0.31596111    -0.02200
C558        C  0.47390789  0.24742848  0.29485391    -0.02200
C559        C  0.49517484  0.23111852  0.27224616     0.07730
C560        C  0.49433347  0.19864402  0.27230904    -0.02390
Br561      Br  0.02421803  0.17501688  0.24476909    -0.00940
Br562      Br  0.45759709  0.16483273  0.22387475    -0.01010
Br563      Br  0.47570887  0.29227598  0.29265800    -0.00970
Br564      Br  0.42219070  0.25928790  0.33685011    -0.00960
C565        C  0.46053012  0.13893077  0.45749851    -0.02080
C566        C  0.48582746  0.12507734  0.44298270     0.07600
C567        C  0.49099041  0.12370622  0.39433608    -0.02200
C568        C  0.47159847  0.13513812  0.36146693    -0.02200
C569        C  0.44715486  0.15216249  0.37603203     0.07730
C570        C  0.44047891  0.14767578  0.42479969    -0.02390
Br571      Br  0.40299384  0.14453650  0.44877587    -0.00940
Br572      Br  0.45188410  0.14924856  0.52218306    -0.01010
Br573      Br  0.47539706  0.11437645  0.30165666    -0.00970
Br574      Br  0.02566609  0.10732694  0.37145500    -0.00960
C575        C  0.36151943  0.21339239  0.40488977    -0.02080
C576        C  0.37261204  0.23103248  0.44160119     0.07600
C577        C  0.40135117  0.22950756  0.44704194    -0.02200
C578        C  0.41885595  0.21334767  0.41456119    -0.02200
C579        C  0.40809352  0.19487815  0.37639395     0.07730
C580        C  0.37825931  0.19361122  0.37562943    -0.02390
Br581      Br  0.35762654  0.16023057  0.34669279    -0.00940
Br582      Br  0.32213688  0.21311640  0.39935192    -0.01010
Br583      Br  0.45811871  0.21812552  0.42413136    -0.00970
Br584      Br  0.41718412  0.24929378  0.50085524    -0.00960
C585        C  0.13371562  0.41749026  0.29385111    -0.02080
C586        C  0.15490623  0.40320525  0.32244217     0.07600
C587        C  0.15646675  0.36937486  0.31903832    -0.02200
C588        C  0.14183891  0.35293053  0.28391543    -0.02200
C589        C  0.12303700  0.36819310  0.25514821     0.07730
C590        C  0.11883597  0.40010105  0.26077767    -0.02390
Br591      Br  0.09483296  0.42037170  0.21691094    -0.00940
Br592      Br  0.12518090  0.46167449  0.29212850    -0.01010
Br593      Br  0.15045328  0.30998799  0.26938165    -0.00970
Br594      Br  0.17467770  0.34217695  0.36269713    -0.00960
C595        C  0.22571492  0.48605914  0.28555714    -0.02080
C596        C  0.21698444  0.48517317  0.23835454     0.07600
C597        C  0.19632197  0.46423758  0.22732550    -0.02200
C598        C  0.18807418  0.44120553  0.26008265    -0.02200
C599        C  0.19248079  0.44468775  0.31050452     0.07730
C600        C  0.21410053  0.46629966  0.32093003    -0.02390
Br601      Br  0.22767999  0.47231877  0.38351809    -0.00940
Br602      Br  0.25201888  0.51754123  0.30288323    -0.01010
Br603      Br  0.18302013  0.40182628  0.22727992    -0.00970
Br604      Br  0.18201052  0.46407903  0.16437406    -0.00960
C605        C  0.11341591  0.44767298  0.43801598    -0.02080
C606        C  0.11666382  0.47953459  0.44661821     0.07600
C607        C  0.13703791  0.99560565  0.42151659    -0.02200
C608        C  0.15326978  0.48043418  0.38632169    -0.02200
C609        C  0.15393925  0.44645959  0.38226610     0.07730
C610        C  0.13274479  0.43092496  0.41003301    -0.02390
Br611      Br  0.13118216  0.38652007  0.41992288    -0.00940
Br612      Br  0.08246644  0.42681106  0.46715785    -0.01010
Br613      Br  0.16914221  0.00979981  0.34287529    -0.00970
Br614      Br  0.14422546  0.03846756  0.43905945    -0.00960
C615        C  0.22150953  0.40265484  0.46501440    -0.02080
C616        C  0.23691097  0.37642410  0.45034600     0.07600
C617        C  0.23612375  0.37015346  0.40156517    -0.02200
C618        C  0.21950043  0.38853712  0.37045834    -0.02200
C619        C  0.19756513  0.40890736  0.38696763     0.07730
C620        C  0.20027204  0.41597411  0.43713056    -0.02390
Br621      Br  0.17987725  0.44664612  0.47391020    -0.00940
Br622      Br  0.23412200  0.42548904  0.51960923    -0.01010
Br623      Br  0.22838314  0.38380913  0.30516467    -0.00970
Br624      Br  0.25824410  0.33655353  0.37549569    -0.00960
C625        C  0.15311324  0.12052777  0.82619610    -0.02080
C626        C  0.15872979  0.15369418  0.82236700     0.07600
C627        C  0.14560965  0.16890515  0.78314895    -0.02200
C628        C  0.12634119  0.15315530  0.75487079    -0.02200
C629        C  0.11957184  0.12170139  0.76276503     0.07730
C630        C  0.13256038  0.10577366  0.79911423    -0.02390
Br631      Br  0.12192022  0.06296718  0.81159008    -0.00940
Br632      Br  0.17523231  0.09136667  0.85993717    -0.01010
Br633      Br  0.10549714  0.17625407  0.70877999    -0.00970
Br634      Br  0.15023685  0.21230793  0.76703459    -0.00960
C635        C  0.15008419  0.23565198  0.95094953    -0.02080
C636        C  0.12226268  0.23870918  0.94014461     0.07600
C637        C  0.11204769  0.22331396  0.90129166    -0.02200
C638        C  0.12721349  0.19900458  0.88041594    -0.02200
C639        C  0.15656034  0.19598802  0.88819844     0.07730
C640        C  0.16711199  0.21444523  0.92626946    -0.02390
Br641      Br  0.20525842  0.21479630  0.94408721    -0.00940
Br642      Br  0.16562629  0.26500560  0.99495903    -0.01010
Br643      Br  0.10225011  0.16644232  0.85986676    -0.00970
Br644      Br  0.07611637  0.23399730  0.87831423    -0.00960
C645        C  0.17731785  0.13937648  0.93954895    -0.02080
C646        C  0.19163835  0.15230538  0.89860324     0.07600
C647        C  0.22044748  0.14463586  0.89764970    -0.02200
C648        C  0.23069824  0.12003316  0.92501070    -0.02200
C649        C  0.21843710  0.11211094  0.96826565     0.07730
C650        C  0.19143512  0.12260366  0.97548329    -0.02390
Br651      Br  0.17360921  0.11332889  0.03440858    -0.00940
Br652      Br  0.13826314  0.14079538  0.94885248    -0.01010
Br653      Br  0.26025999  0.09528316  0.89908536    -0.00970
Br654      Br  0.25015846  0.17155627  0.87759777    -0.00960
C655        C  0.23454434  0.19426832  0.76375136    -0.02080
C656        C  0.23914765  0.22656984  0.76912406     0.07600
C657        C  0.22400531  0.24244310  0.80374382    -0.02200
C658        C  0.20212679  0.22754166  0.82847032    -0.02200
C659        C  0.19846891  0.19355039  0.82750096     0.07730
C660        C  0.21526570  0.17788523  0.79240259    -0.02390
Br661      Br  0.21459054  0.13311301  0.78280317    -0.00940
Br662      Br  0.25682567  0.17162559  0.71846647    -0.01010
Br663      Br  0.17493396  0.25828637  0.84845368    -0.00970
Br664      Br  0.23181757  0.28639062  0.81402498    -0.00960
C665        C  0.09723762  0.36366790  0.67321663    -0.02080
C666        C  0.08962098  0.36215139  0.72095379     0.07600
C667        C  0.07013421  0.34022619  0.73483778    -0.02200
C668        C  0.05963134  0.31838902  0.70235412    -0.02200
C669        C  0.06387966  0.32206101  0.65191024     0.07730
C670        C  0.08500807  0.34403179  0.63922998    -0.02390
Br671      Br  0.09679582  0.35078650  0.57518276    -0.00940
Br672      Br  0.12339161  0.39517488  0.65384164    -0.01010
Br673      Br  0.04840338  0.28028859  0.73399982    -0.00970
Br674      Br  0.06074627  0.33775245  0.80095261    -0.00960
C675        C  0.06794158  0.48792012  0.00017841    -0.02080
C676        C  0.09059099  0.50158771  0.97684708     0.07600
C677        C  0.10407122  0.02597501  0.00191104    -0.02200
C678        C  0.09604819  0.03421667  0.04812653    -0.02200
C679        C  0.06971881  0.02664593  0.06617070     0.07730
C680        C  0.05966172  0.99823889  0.04570592    -0.02390
Br681      Br  0.04250254  0.96612193  0.08270682    -0.00940
Br682      Br  0.04677792  0.45538908  0.97053755    -0.01010
Br683      Br  0.12657373  0.03776771  0.09040605    -0.00970
Br684      Br  0.13415810  0.04997575  0.97651105    -0.00960
C685        C  0.26104746  0.37247528  0.03274017    -0.02080
C686        C  0.26284822  0.36421747  0.98521948     0.07600
C687        C  0.27983140  0.33926593  0.97229089    -0.02200
C688        C  0.29588227  0.32332979  0.00589975    -0.02200
C689        C  0.29094192  0.32732274  0.05621831     0.07730
C690        C  0.27447351  0.35459952  0.06771783    -0.02390
Br691      Br  0.26684930  0.36796267  0.13100770    -0.00940
Br692      Br  0.23801243  0.40781499  0.04984292    -0.01010
Br693      Br  0.32827157  0.30504132  0.97639523    -0.00970
Br694      Br  0.28048353  0.32655071  0.90711286    -0.00960
C695        C  0.28273661  0.01122145  0.73210742    -0.02080
C696        C  0.26251863  0.48967943  0.72095153     0.07600
C697        C  0.25343011  0.48900683  0.67395477    -0.02200
C698        C  0.26400095  0.00974932  0.63907338    -0.02200
C699        C  0.28580167  0.03110154  0.64914545     0.07730
C700        C  0.29058924  0.03443276  0.69935438    -0.02390
Br701      Br  0.29544550  0.07404395  0.73145602    -0.00940
Br702      Br  0.29695196  0.51198751  0.79510099    -0.01010
Br703      Br  0.24776803  0.00663278  0.57811727    -0.00970
Br704      Br  0.22762384  0.45701401  0.65623743    -0.00960
C705        C  0.33846287  0.12120554  0.67781844    -0.02080
C706        C  0.35902487  0.10516138  0.70186463     0.07600
C707        C  0.36357725  0.07386844  0.69145566    -0.02200
C708        C  0.34577998  0.05711491  0.66232632    -0.02200
C709        C  0.32356818  0.07221997  0.63739192     0.07730
C710        C  0.32204677  0.10583693  0.64376638    -0.02390
Br711      Br  0.29911750  0.13342476  0.60849467    -0.00940
Br712      Br  0.33101478  0.16371252  0.69681918    -0.01010
Br713      Br  0.35194375  0.01254297  0.66530141    -0.00970
Br714      Br  0.39455966  0.05364197  0.71927658    -0.00960
C715        C  0.49603383  0.07773312  0.01008244    -0.02080
C716        C  0.50012508  0.10986300  0.00899554     0.07600
C717        C  0.51888551  0.12341218  0.03875974    -0.02200
C718        C  0.03127741  0.10520642  0.07350707    -0.02200
C719        C  0.03267759  0.07140193  0.06928084     0.07730
C720        C  0.01297752  0.05832937  0.03718445    -0.02390
Br721      Br  0.00176815  0.01553256  0.03482859    -0.00940
Br722      Br  0.46496444  0.06129356  0.97602744    -0.01010
Br723      Br  0.03621149  0.12872030  0.13080072    -0.00970
Br724      Br  0.52796900  0.16689848  0.03108459    -0.00960
C725        C  0.37151502  0.26185484  0.04936112    -0.02080
C726        C  0.36010111  0.23819219  0.02242386     0.07600
C727        C  0.33174740  0.23353034  0.02380802    -0.02200
C728        C  0.31424648  0.25481232  0.04758335    -0.02200
C729        C  0.32499725  0.28063847  0.07449232     0.07730
C730        C  0.35482039  0.28079000  0.07868501    -0.02390
Br731      Br  0.37638482  0.29932890  0.12792960    -0.00940
Br732      Br  0.41053596  0.26986007  0.04268652    -0.01010
Br733      Br  0.27587025  0.24912845  0.03463846    -0.00970
Br734      Br  0.31684002  0.19933063  0.98758999    -0.00960
C735        C  0.01295995  0.22841963  0.67401132    -0.02080
C736        C  0.48817275  0.24116539  0.69033809     0.07600
C737        C  0.48165237  0.27175989  0.67867379    -0.02200
C738        C  0.50181768  0.29142997  0.65904804    -0.02200
C739        C  0.02694797  0.27908416  0.63808820     0.07730
C740        C  0.03025622  0.24552494  0.64300054    -0.02390
Br741      Br  0.05611747  0.21973292  0.60953194    -0.00940
Br742      Br  0.02498758  0.18919931  0.70030054    -0.01010
Br743      Br  0.49450286  0.33494329  0.67116059    -0.00970
Br744      Br  0.44536172  0.28726806  0.69486489    -0.00960
C745        C  0.31762748  0.32745348  0.18160269    -0.02080
C746        C  0.31990176  0.32943542  0.13153235     0.07600
C747        C  0.33829378  0.35390842  0.11528793    -0.02200
C748        C  0.35490980  0.37113278  0.14714752    -0.02200
C749        C  0.35722134  0.36147401  0.19421112     0.07730
C750        C  0.33899667  0.33785234  0.20979656    -0.02390
Br751      Br  0.34361299  0.31542761  0.26789894    -0.00940
Br752      Br  0.28404640  0.32074267  0.21759946    -0.01010
Br753      Br  0.37519719  0.40721942  0.12536891    -0.00970
Br754      Br  0.34483590  0.36344737  0.05022920    -0.00960
C755        C  0.04587947  0.00750083  0.16687180    -0.02080
C756        C  0.03367812  0.02976436  0.13561221     0.07600
C757        C  0.50430721  0.03332373  0.14087121    -0.02200
C758        C  0.48855303  0.01000621  0.16286003    -0.02200
C759        C  0.50080231  0.48953599  0.19433727     0.07730
C760        C  0.02945824  0.49024642  0.19869573    -0.02390
Br761      Br  0.04612123  0.46924410  0.25058138    -0.00940
Br762      Br  0.08483719  0.99918258  0.16781687    -0.01010
Br763      Br  0.44939390  0.00945569  0.15503305    -0.00970
Br764      Br  0.48429153  0.07238412  0.13502009    -0.00960
C765        C  0.51047904  0.37366418  0.54602841    -0.02080
C766        C  0.49149541  0.35797621  0.51871288     0.07600
C767        C  0.49040811  0.32537078  0.52143939    -0.02200
C768        C  0.50852999  0.30816736  0.55007163    -0.02200
C769        C  0.02802174  0.32358017  0.58042332     0.07730
C770        C  0.02623770  0.35768623  0.57997977    -0.02390
Br771      Br  0.03781870  0.38613718  0.62862816    -0.00940
Br772      Br  0.51621327  0.41746242  0.53322189    -0.01010
Br773      Br  0.50643351  0.26308626  0.54192976    -0.00970
Br774      Br  0.46485457  0.30420744  0.48174720    -0.00960
C775        C  0.32483393  0.99717989  0.57035063    -0.02080
C776        C  0.32319338  0.03102823  0.57487342     0.07600
C777        C  0.34219812  0.04792418  0.54439271    -0.02200
C778        C  0.36054999  0.03241622  0.51305054    -0.02200
C779        C  0.35985099  0.49999427  0.50754771     0.07730
C780        C  0.34150138  0.48273903  0.53518452    -0.02390
Br781      Br  0.33770903  0.43870895  0.52094221    -0.00940
Br782      Br  0.30850576  0.46711748  0.61211218    -0.01010
Br783      Br  0.38694489  0.05563764  0.47574515    -0.00970
Br784      Br  0.34317529  0.09297816  0.53929140    -0.00960
C785        C  0.38447087  0.44765080  0.89932544    -0.02080
C786        C  0.41388143  0.44766571  0.89356550     0.07600
C787        C  0.42836940  0.46792334  0.92594569    -0.02200
C788        C  0.41515923  0.48123616  0.96564995    -0.02200
C789        C  0.38676842  0.48162940  0.96973822     0.07730
C790        C  0.37148923  0.46598801  0.93466186    -0.02390
Br791      Br  0.33172413  0.46778248  0.93466679    -0.00940
Br792      Br  0.35917115  0.42260253  0.86349776    -0.01010
Br793      Br  0.43591945  0.99241127  0.02010296    -0.00970
Br794      Br  0.46693978  0.47741770  0.92197631    -0.00960
C795        C  0.47965034  0.44163800  0.81899535    -0.02080
C796        C  0.45108270  0.44850081  0.82920957     0.07600
C797        C  0.44214146  0.47901600  0.81316513    -0.02200
C798        C  0.46016077  0.99850034  0.78731075    -0.02200
C799        C  0.48441884  0.98646167  0.76830214     0.07730
C800        C  0.99331230  0.45699701  0.78219464    -0.02390
Br801      Br  0.02615023  0.43908928  0.75451836    -0.00940
Br802      Br  0.50628718  0.42665558  0.86347612    -0.01010
Br803      Br  0.45194221  0.04164457  0.77550360    -0.00970
Br804      Br  0.40486131  0.99451767  0.81808730    -0.00960
C805        C  0.40272786  0.37368598  0.83141718    -0.02080
C806        C  0.41223419  0.40545864  0.82183415     0.07600
C807        C  0.40263469  0.41742921  0.77774614    -0.02200
C808        C  0.37987053  0.40381466  0.75564554    -0.02200
C809        C  0.37376206  0.37206651  0.76251793     0.07730
C810        C  0.38805918  0.35657413  0.79749954    -0.02390
Br811      Br  0.39108128  0.31178292  0.79431601    -0.00940
Br812      Br  0.40412918  0.35168060  0.89025842    -0.01010
Br813      Br  0.35784658  0.42925485  0.71519174    -0.00970
Br814      Br  0.42522586  0.43869665  0.73217726    -0.00960
C815        C  0.46422277  0.37701057  0.86833747    -0.02080
C816        C  0.44734106  0.40161333  0.88780718     0.07600
C817        C  0.44652911  0.40300794  0.93763470    -0.02200
C818        C  0.46895844  0.39356889  0.96236752    -0.02200
C819        C  0.48479020  0.36834277  0.94557707     0.07730
C820        C  0.48129905  0.35901559  0.89820439    -0.02390
Br821      Br  0.00065345  0.32345649  0.87247718    -0.00940
Br822      Br  0.46632621  0.36841072  0.80159281    -0.01010
Br823      Br  0.47656233  0.41777297  0.01785442    -0.00970
Br824      Br  0.41346372  0.40331886  0.97627367    -0.00960
C825        C  0.43074270  0.92569533  0.85745175    -0.02720
O826        O  0.48625640  0.98753114  0.42119133    -0.75450
O827        O  0.46078079  0.96375199  0.47869491    -0.54430
C828        C  0.48015038  0.98206752  0.46359316     0.78200
O829        O  0.38340851  0.98818205  0.26839487    -0.60130
O830        O  0.40809418  0.96062637  0.21333472    -0.53160
C831        C  0.39073454  0.98165190  0.22596646     0.70220
O832        O  0.37342387  0.99029550  0.42806806    -0.74690
O833        O  0.39547057  0.96395678  0.48622161    -0.55250
C834        C  0.37762294  0.98391841  0.47164920     0.76220
O835        O  0.48753138  0.98129273  0.27237635    -0.59830
O836        O  0.46552886  0.95313296  0.21668788    -0.52950
C837        C  0.48355285  0.97322234  0.22978841     0.72810
Zr838      Zr  0.47082696  0.96817663  0.34979916     2.54710
O839        O  0.47246453  0.52495864  0.34429596    -0.80400
O840        O  0.02019386  0.95990491  0.35191010    -0.93810
Zr841      Zr  0.39063307  0.97416216  0.34982134     2.64680
O842        O  0.39154208  0.52999110  0.35583240    -0.98770
O843        O  0.34102337  0.97452456  0.34250173    -0.80830
O844        O  0.43022751  0.97330070  0.39623622    -0.84190
O845        O  0.43165372  0.97091645  0.30416805    -2.18900
O846        O  0.48928177  0.86420148  0.29296443    -0.67580
O847        O  0.46582283  0.88664336  0.23298829    -0.52140
C848        C  0.48500057  0.86942826  0.24997086     0.71190
O849        O  0.36635208  0.86895856  0.42030004    -0.60480
O850        O  0.39161628  0.89230228  0.47758535    -0.52460
C851        C  0.37224114  0.87418275  0.46261002     0.73000
O852        O  0.36830105  0.87503916  0.27166437    -0.71880
O853        O  0.39867986  0.89056590  0.21608809    -0.50560
C854        C  0.37617177  0.87682749  0.22892160     0.74380
O855        O  0.48263292  0.86803281  0.43959268    -0.67210
O856        O  0.45606054  0.89400398  0.49317787    -0.54410
C857        C  0.47561753  0.87471825  0.48183954     0.72760
Zr858      Zr  0.46474183  0.87690581  0.36202519     2.77540
O859        O  0.44280078  0.82735228  0.37710550    -0.97960
O860        O  0.00880422  0.85020377  0.36553910    -0.78780
Zr861      Zr  0.38598386  0.88381744  0.34885785     2.70070
O862        O  0.38475389  0.82698072  0.34610522    -0.80030
O863        O  0.33631222  0.88965776  0.35228876    -0.99110
Zr864      Zr  0.42652310  0.92816566  0.44499207     2.21500
Zr865      Zr  0.43144552  0.92296152  0.26100648     2.11130
O866        O  0.42779129  0.87707867  0.30793300    -2.47800
O867        O  0.42309206  0.88072665  0.40225575    -0.79820
O868        O  0.47010086  0.92029391  0.31059789    -0.72020
O869        O  0.38717962  0.92936717  0.39602931    -2.32970
O870        O  0.46819236  0.92470497  0.40125745    -2.29180
O871        O  0.38910752  0.92864041  0.30267436    -0.73770
H872        H  0.43354105  0.98885488  0.28394268     0.78220
H873        H  0.37051972  0.93058672  0.41451783     0.79310
H874        H  0.42757977  0.85851353  0.28865925     0.81540
H875        H  0.48401383  0.92457407  0.42113044     0.79140
H876        H  0.33419738  0.96182690  0.36909799     0.42180
H877        H  0.33187850  0.90468874  0.32717725     0.41150
H878        H  0.38558036  0.81995066  0.37904301     0.40830
H879        H  0.43546183  0.82158545  0.34638227     0.38760
H880        H  0.02232331  0.86706875  0.37042931     0.41890
H881        H  0.02352472  0.94743861  0.38043277     0.36680
H882        H  0.45960533  0.53256489  0.36888585     0.42790
H883        H  0.41024841  0.53396925  0.34380158     0.39210
H884        H  0.45807952  0.81261868  0.38238242     0.44130
H885        H  0.02795102  0.98072515  0.35887731     0.42850
H886        H  0.37908819  0.53729102  0.33106030     0.42990
H887        H  0.32902445  0.86942448  0.34124050     0.43340
O888        O  0.48186909  0.73977963  0.92218302    -0.75530
O889        O  0.46151494  0.71218064  0.98158407    -0.54430
C890        C  0.47885913  0.73188773  0.96486565     0.78200
O891        O  0.36703055  0.73308456  0.79246423    -0.60130
O892        O  0.39009563  0.70739733  0.73363989    -0.53160
C893        C  0.37185786  0.72662927  0.74956993     0.70220
O894        O  0.36879369  0.72753341  0.94385292    -0.74690
O895        O  0.39767032  0.70577397  0.99668131    -0.55250
C896        C  0.37671954  0.72253152  0.98567116     0.76220
O897        O  0.47792796  0.73461030  0.77005213    -0.59830
O898        O  0.45335935  0.70616910  0.71788748    -0.52950
C899        C  0.47214368  0.72595840  0.72825832     0.72810
Zr900      Zr  0.46252258  0.72500908  0.85010974     2.54710
O901        O  0.44975132  0.77995572  0.84708227    -0.80400
O902        O  0.01095899  0.73576047  0.83830199    -0.93810
Zr903      Zr  0.38306432  0.71483762  0.86530450     2.64680
O904        O  0.37404956  0.76903877  0.88584992    -0.98770
O905        O  0.33409175  0.70473631  0.86228001    -0.80830
O906        O  0.42493570  0.72179598  0.90379192    -0.84190
O907        O  0.42071812  0.72132530  0.81192773    -2.18900
O908        O  0.48640971  0.62092849  0.78414980    -0.67580
O909        O  0.45883935  0.64237673  0.72866642    -0.52140
C910        C  0.47952135  0.62619737  0.74248522     0.71190
O911        O  0.38518069  0.60761910  0.94163935    -0.60480
O912        O  0.40894842  0.63563988  0.99599244    -0.52460
C913        C  0.39240390  0.61406109  0.98371583     0.73000
O914        O  0.37224333  0.61211798  0.78174670    -0.71880
O915        O  0.39354952  0.64088375  0.72479449    -0.50560
C916        C  0.37585049  0.62063342  0.73857578     0.74380
O917        O  0.48945985  0.62185246  0.93253500    -0.67210
O918        O  0.46522446  0.64654791  0.99038467    -0.54410
C919        C  0.48439322  0.62822411  0.97546244     0.72760
Zr920      Zr  0.47020397  0.63355940  0.85781701     2.77540
O921        O  0.47446581  0.57697907  0.85847774    -0.97960
O922        O  0.01971612  0.63996275  0.85443604    -0.78780
Zr923      Zr  0.39060398  0.62353385  0.86069919     2.70070
O924        O  0.39562357  0.56709619  0.85495388    -0.80030
O925        O  0.34127026  0.61845080  0.87053919    -0.99110
Zr926      Zr  0.43007138  0.67539699  0.94875702     2.21500
Zr927      Zr  0.42431000  0.67391775  0.76820679     2.11130
O928        O  0.42989992  0.62713582  0.81275227    -2.47800
O929        O  0.43132615  0.62790273  0.90519156    -0.79820
O930        O  0.46589847  0.67793170  0.80900198    -0.72020
O931        O  0.38768362  0.66884510  0.90902103    -2.32970
O932        O  0.46893757  0.68044983  0.89857756    -2.29180
O933        O  0.38492098  0.66963621  0.81757882    -0.73770
H934        H  0.41879205  0.73948736  0.79221476     0.78220
H935        H  0.37254913  0.66684157  0.93090199     0.79310
H936        H  0.43120385  0.60895623  0.79277296     0.81540
H937        H  0.48594443  0.68172813  0.91528166     0.79140
H938        H  0.33129021  0.68593893  0.88185255     0.42180
H939        H  0.33337599  0.63169444  0.84571042     0.41150
H940        H  0.40632253  0.56109855  0.88274215     0.40830
H941        H  0.45818052  0.56960489  0.87612793     0.38760
H942        H  0.02259467  0.65983728  0.83740694     0.41890
H943        H  0.02007582  0.71925379  0.85668945     0.36680
H944        H  0.44436976  0.78531572  0.87964699     0.42790
H945        H  0.39165934  0.77982503  0.88034284     0.39210
H946        H  0.49024272  0.57224932  0.87869380     0.44130
H947        H  0.01459110  0.75541586  0.85535618     0.42850
H948        H  0.36137171  0.77690097  0.86184237     0.42990
H949        H  0.33728093  0.59677718  0.86061819     0.43340
O950        O  0.20471953  0.97808699  0.97431984    -0.75530
O951        O  0.24165008  0.96447555  0.92804531    -0.54430
C952        C  0.23011986  0.97710289  0.96569503     0.78200
O953        O  0.12977055  0.86877633  0.94555142    -0.60130
O954        O  0.09425531  0.89086814  0.90577775    -0.53160
C955        C  0.10445027  0.87327802  0.93802204     0.70220
O956        O  0.21843861  0.87244126  0.95735235    -0.74690
O957        O  0.25319341  0.89667976  0.91725046    -0.55250
C958        C  0.24385453  0.87887389  0.95065128     0.76220
O959        O  0.12541756  0.99940133  0.91696137    -0.59830
O960        O  0.09529360  0.96087587  0.91444157    -0.52950
C961        C  0.10379672  0.98675341  0.93301762     0.72810
Zr962      Zr  0.16968648  0.97478866  0.92048083     2.54710
O963        O  0.15336510  0.97701192  0.00140567    -0.80400
O964        O  0.18442075  0.52889870  0.91844010    -0.93810
Zr965      Zr  0.17445147  0.88306755  0.92204138     2.64680
O966        O  0.17381431  0.88146505  0.00714633    -0.98770
O967        O  0.17661641  0.82653822  0.91274962    -0.80830
O968        O  0.19832269  0.93006429  0.92211289    -0.84190
O969        O  0.14514749  0.92769403  0.92194772    -2.18900
O970        O  0.13093359  0.98737722  0.76094320    -0.67580
O971        O  0.09517188  0.96276470  0.79779368    -0.52140
C972        C  0.10559374  0.98128106  0.76665406     0.71190
O973        O  0.22030746  0.87026908  0.76106216    -0.60480
O974        O  0.25441586  0.89321743  0.80306593    -0.52460
C975        C  0.24543843  0.87538440  0.76956889     0.73000
O976        O  0.13282369  0.87039831  0.75215363    -0.71880
O977        O  0.09716100  0.89499891  0.78973760    -0.50560
C978        C  0.10736311  0.87717270  0.75683574     0.74380
O979        O  0.21906411  0.98152657  0.75203115    -0.67210
O980        O  0.25364269  0.96114115  0.79545819    -0.54410
C981        C  0.24440112  0.97604929  0.75896342     0.72760
Zr982      Zr  0.17526695  0.97358469  0.78780741     2.77540
O983        O  0.17307298  0.97573634  0.70272168    -0.97960
O984        O  0.18039641  0.52990077  0.79319124    -0.78780
Zr985      Zr  0.17555337  0.88237331  0.78893786     2.70070
O986        O  0.18068644  0.87769741  0.70446543    -0.80030
O987        O  0.17316599  0.82633821  0.80117663    -0.99110
Zr988      Zr  0.22970149  0.92974540  0.85836707     2.21500
Zr989      Zr  0.11802210  0.92739617  0.85260195     2.11130
O990        O  0.14857291  0.92788506  0.78627229    -2.47800
O991        O  0.20224311  0.92816213  0.78989373    -0.79820
O992        O  0.14412922  0.97472555  0.85168845    -0.72020
O993        O  0.20351072  0.88230536  0.85611053    -2.32970
O994        O  0.20157474  0.97589651  0.85642046    -2.29180
O995        O  0.14637805  0.88122615  0.85497202    -0.73770
H996        H  0.13366190  0.92766925  0.94970357     0.78220
H997        H  0.21521407  0.86406002  0.85667529     0.79310
H998        H  0.13857019  0.92816112  0.75740171     0.81540
H999        H  0.21314026  0.99414279  0.85642174     0.79140
H1000       H  0.19636525  0.82127917  0.91351269     0.42180
H1001       H  0.15374304  0.82241286  0.80955247     0.41150
H1002       H  0.18527989  0.89908958  0.69385604     0.40830
H1003       H  0.15808983  0.96154443  0.69356294     0.38760
H1004       H  0.18098739  0.53715026  0.76031272     0.41890
H1005       H  0.18653844  0.53266688  0.88461135     0.36680
H1006       H  0.15725353  0.95605131  0.01441636     0.42790
H1007       H  0.15620261  0.89113069  0.01696173     0.39210
H1008       H  0.16646584  0.99701227  0.69516512     0.44130
H1009       H  0.20335916  0.52949280  0.93024238     0.42850
H1010       H  0.17181721  0.85899521  0.01451076     0.42990
H1011       H  0.17544195  0.81728061  0.76944945     0.43340
C1012       C  0.17658037  0.67363279  0.85908524    -0.02720
C1013       C  0.17533687  0.92564895  0.35108836    -0.02720
C1014       C  0.42886653  0.67491613  0.34259187    -0.02720
O1015       O  0.49490787  0.62122271  0.66745511    -0.75530
O1016       O  0.01412295  0.59126612  0.72464069    -0.54430
C1017       C  0.99727136  0.61201245  0.70924369     0.78200
O1018       O  0.49099144  0.49288461  0.53930094    -0.60130
O1019       O  0.01670812  0.51601694  0.48134407    -0.53160
C1020       C  0.99714646  0.49805937  0.49677996     0.70220
O1021       O  0.49272841  0.49742374  0.68918532    -0.74690
O1022       O  0.01788399  0.52345807  0.74337097    -0.55250
C1023       C  0.99938144  0.50371102  0.73143611     0.76220
O1024       O  0.50217952  0.61911877  0.52060880    -0.59830
O1025       O  0.02047700  0.58605283  0.46700643    -0.52950
C1026       C  0.00449595  0.60928510  0.47852322     0.72810
Zr1027     Zr  0.01415347  0.60213161  0.59820148     2.54710
O1028       O  0.46446040  0.59799992  0.59531552    -0.80400
O1029       O  0.01719529  0.65811085  0.58937295    -0.93810
Zr1030     Zr  0.00694291  0.51219151  0.61052228     2.64680
O1031       O  0.45820447  0.52456327  0.61324004    -0.98770
O1032       O  0.99925481  0.95647913  0.61927280    -0.80830
O1033       O  0.00934120  0.55944356  0.65076485    -0.84190
O1034       O  0.01029443  0.55519678  0.55793959    -2.18900
O1035       O  0.11279843  0.60952932  0.53632411    -0.67580
O1036       O  0.08653910  0.58742428  0.47931686    -0.52140
C1037       C  0.10642313  0.60500875  0.49399807     0.71190
O1038       O  0.09598491  0.48946124  0.68865904    -0.60480
O1039       O  0.07217893  0.51756260  0.74425679    -0.52460
C1040       C  0.08910859  0.49618584  0.73138839     0.73000
O1041       O  0.10350850  0.48821417  0.52673308    -0.71880
O1042       O  0.08210211  0.51646576  0.46978845    -0.50560
C1043       C  0.09952437  0.49573025  0.48338681     0.74380
O1044       O  0.10960988  0.60845022  0.68506495    -0.67210
O1045       O  0.08134542  0.58840434  0.74122757    -0.54410
C1046       C  0.10221462  0.60489483  0.72792909     0.72760
Zr1047     Zr  0.09370817  0.59411493  0.60827913     2.77540
O1048       O  0.14308864  0.58691327  0.61252015    -0.97960
O1049       O  0.09446846  0.65091775  0.60573065    -0.78780
Zr1050     Zr  0.08707423  0.50272689  0.60667899     2.70070
O1051       O  0.13647421  0.49582162  0.61037129    -0.80030
O1052       O  0.07966408  0.94667280  0.60480720    -0.99110
Zr1053     Zr  0.04914184  0.55553345  0.69694326     2.21500
Zr1054     Zr  0.05153805  0.55164234  0.51319245     2.11130
O1055       O  0.09125859  0.54840794  0.56134572    -2.47800
O1056       O  0.09065518  0.54861503  0.65347831    -0.79820
O1057       O  0.05571123  0.59838309  0.55707953    -0.72020
O1058       O  0.04699421  0.50785412  0.65369903    -2.32970
O1059       O  0.05240445  0.60124926  0.64975825    -2.29180
O1060       O  0.04688657  0.50612001  0.56184300    -0.73770
H1061       H  0.49437489  0.55618348  0.53830461     0.78220
H1062       H  0.04525608  0.98995502  0.67400461     0.79310
H1063       H  0.10773181  0.54705699  0.54238596     0.81540
H1064       H  0.05302780  0.62000899  0.66857433     0.79140
H1065       H  0.01399999  0.94939927  0.64020869     0.42180
H1066       H  0.06309287  0.94436232  0.58562974     0.41150
H1067       H  0.14363746  0.51715324  0.61546785     0.40830
H1068       H  0.14846832  0.57584724  0.58334906     0.38760
H1069       H  0.08362964  0.65646685  0.57789777     0.41890
H1070       H  0.03298736  0.66250897  0.60941011     0.36680
H1071       H  0.45889769  0.58712062  0.62444342     0.42790
H1072       H  0.45350879  0.53058418  0.58088185     0.39210
H1073       H  0.15054574  0.60824873  0.60878053     0.44130
H1074       H  0.50113453  0.66677160  0.60652012     0.42850
H1075       H  0.44910494  0.50415463  0.61802735     0.42990
H1076       H  0.09466482  0.93843424  0.58462878     0.43340
O1077       O  0.49699684  0.85678892  0.02306119    -0.75530
O1078       O  0.02019059  0.83162820  0.96559455    -0.54430
C1079       C  0.00195979  0.85112130  0.97972927     0.78200
O1080       O  0.11195138  0.85764376  0.17542810    -0.60130
O1081       O  0.08763776  0.83345493  0.23370804    -0.53160
C1082       C  0.10696297  0.85134741  0.21903572     0.70220
O1083       O  0.09646654  0.86256766  0.01547112    -0.74690
O1084       O  0.07072874  0.83709227  0.96131993    -0.55250
C1085       C  0.08813502  0.85773208  0.97339262     0.76220
O1086       O  0.49682837  0.85993268  0.17495527    -0.59830
O1087       O  0.02250711  0.83654245  0.23133851    -0.52950
C1088       C  0.00291312  0.85433595  0.21705184     0.72810
Zr1089     Zr  0.01308787  0.84602091  0.10110942     2.54710
O1090       O  0.01925727  0.90175113  0.09925875    -0.80400
O1091       O  0.46335976  0.85141621  0.10480836    -0.93810
Zr1092     Zr  0.09307252  0.84640647  0.09717204     2.64680
O1093       O  0.09498698  0.90325293  0.09691163    -0.98770
O1094       O  0.14248668  0.84355238  0.08649900    -0.80830
O1095       O  0.05215424  0.84612892  0.05378626    -0.84190
O1096       O  0.05380809  0.84836647  0.14586795    -2.18900
O1097       O  0.50294137  0.73989795  0.19236539    -0.67580
O1098       O  0.02871971  0.76765878  0.24352301    -0.52140
C1099       C  0.01054714  0.74695126  0.23393799     0.71190
O1100       O  0.10818594  0.74307444  0.01790472    -0.60480
O1101       O  0.08348071  0.76980961  0.96436798    -0.52460
C1102       C  0.10327791  0.75159222  0.97596119     0.73000
O1103       O  0.11115524  0.74226796  0.16783366    -0.71880
O1104       O  0.08976112  0.76955284  0.22651582    -0.50560
C1105       C  0.10779286  0.75029235  0.21029270     0.74380
O1106       O  0.49332016  0.73921420  0.03956439    -0.67210
O1107       O  0.01575583  0.76421771  0.97960081    -0.54410
C1108       C  0.99726223  0.74599588  0.99664502     0.72760
Zr1109     Zr  0.01153763  0.75543947  0.11153675     2.77540
O1110       O  0.00131902  0.69998266  0.11560492    -0.97960
O1111       O  0.46320585  0.76834731  0.12171810    -0.78780
Zr1112     Zr  0.09107342  0.75376129  0.09538824     2.70070
O1113       O  0.08052352  0.69828153  0.09267584    -0.80030
O1114       O  0.13976868  0.74169710  0.08911118    -0.99110
Zr1115     Zr  0.04973925  0.79865900  0.01105526     2.21500
Zr1116     Zr  0.05515549  0.80186901  0.19186961     2.11130
O1117       O  0.05383170  0.75394334  0.14942252    -2.47800
O1118       O  0.04907169  0.75191145  0.05667548    -0.79820
O1119       O  0.01288085  0.80255555  0.15233658    -0.72020
O1120       O  0.09211376  0.80025554  0.05134591    -2.32970
O1121       O  0.01013885  0.79913596  0.06061714    -2.29180
O1122       O  0.09404009  0.80001789  0.14099802    -0.73770
H1123       H  0.05403114  0.86686614  0.16528619     0.78220
H1124       H  0.10768831  0.80098268  0.03023837     0.79310
H1125       H  0.05490687  0.73609323  0.16996026     0.81540
H1126       H  0.49329820  0.79929634  0.04330446     0.79140
H1127       H  0.14691703  0.82103598  0.08919849     0.42180
H1128       H  0.14888599  0.75727756  0.10914099     0.41150
H1129       H  0.07538379  0.69266732  0.12519782     0.40830
H1130       H  0.01324312  0.69189876  0.14055317     0.38760
H1131       H  0.46116346  0.77487173  0.15484153     0.41890
H1132       H  0.45639714  0.83857644  0.07871227     0.36680
H1133       H  0.02949191  0.90429217  0.06940066     0.42790
H1134       H  0.07957645  0.90996165  0.11742501     0.39210
H1135       H  0.48254314  0.69882491  0.12892201     0.44130
H1136       H  0.45957371  0.87327539  0.09559432     0.42850
H1137       H  0.11169937  0.90853225  0.11443659     0.42990
H1138       H  0.14251813  0.72134715  0.10481260     0.43340
O1139       O  0.35139754  0.98046515  0.02510118    -0.75530
O1140       O  0.38090183  0.51970537  0.03499090    -0.54430
C1141       C  0.37261031  0.49500150  0.01252813     0.78200
O1142       O  0.26155951  0.60486357  0.00255377    -0.60130
O1143       O  0.22643530  0.57913123  0.03880625    -0.53160
C1144       C  0.23615011  0.59746601  0.00602327     0.70220
O1145       O  0.35028453  0.60342053  0.01150770    -0.74690
O1146       O  0.38605862  0.58383030  0.05304373    -0.55250
C1147       C  0.37574869  0.59936932  0.01903243     0.76220
O1148       O  0.27203002  0.98877449  0.99374783    -0.59830
O1149       O  0.23561743  0.50880167  0.03603198    -0.52950
C1150       C  0.24673775  0.49244451  0.00129287     0.72810
Zr1151     Zr  0.30858771  0.50521617  0.03706930     2.54710
O1152       O  0.31557290  0.53031971  0.96082678    -0.80400
O1153       O  0.30101846  0.94910095  0.02756117    -0.93810
Zr1154     Zr  0.30487978  0.59637603  0.04121440     2.64680
O1155       O  0.31355943  0.61883820  0.96435882    -0.98770
O1156       O  0.30079387  0.65008262  0.06836525    -0.80830
O1157       O  0.33359308  0.55153896  0.03777371    -0.84190
O1158       O  0.27987812  0.54947674  0.03630250    -2.18900
O1159       O  0.26048859  0.99196011  0.20584868    -0.67580
O1160       O  0.22592100  0.51491968  0.16491115    -0.52140
C1161       C  0.23517364  0.49854536  0.20010779     0.71190
O1162       O  0.34870457  0.60771823  0.20176370    -0.60480
O1163       O  0.38385473  0.58443557  0.16089669    -0.52460
C1164       C  0.37421366  0.60312463  0.19293375     0.73000
O1165       O  0.25952510  0.60589788  0.19900133    -0.71880
O1166       O  0.22509493  0.58405184  0.15610834    -0.50560
C1167       C  0.23433891  0.60151782  0.18981385     0.74380
O1168       O  0.34871822  0.99199379  0.19900046    -0.67210
O1169       O  0.38449805  0.51288730  0.15746484    -0.54410
C1170       C  0.37412669  0.49642829  0.19101724     0.72760
Zr1171     Zr  0.30431324  0.50181739  0.16968600     2.77540
O1172       O  0.31147433  0.49177594  0.25253407    -0.97960
O1173       O  0.30252758  0.94602664  0.15321123    -0.78780
Zr1174     Zr  0.30448342  0.59279114  0.17291745     2.70070
O1175       O  0.30290795  0.59243259  0.25808764    -0.80030
O1176       O  0.30507694  0.64930274  0.16613088    -0.99110
Zr1177     Zr  0.36120922  0.54894590  0.10494499     2.21500
Zr1178     Zr  0.24921464  0.54688889  0.10133616     2.11130
O1179       O  0.27739860  0.54740460  0.17007397    -2.47800
O1180       O  0.33154378  0.54737092  0.17230827    -0.79820
O1181       O  0.27776798  0.50129924  0.10141973    -0.72020
O1182       O  0.33334980  0.59549040  0.10696300    -2.32970
O1183       O  0.33464668  0.50212406  0.10518650    -2.29180
O1184       O  0.27569839  0.59435405  0.10673565    -0.73770
H1185       H  0.27028101  0.54909785  0.00705133     0.78220
H1186       H  0.34455507  0.61403127  0.10787599     0.79310
H1187       H  0.26630265  0.54793774  0.19820503     0.81540
H1188       H  0.34594924  0.98359347  0.10658816     0.79140
H1189       H  0.31990871  0.65730211  0.07169698     0.42180
H1190       H  0.28557083  0.65566679  0.16664628     0.41150
H1191       H  0.31355398  0.57366831  0.26693812     0.40830
H1192       H  0.30728856  0.51182702  0.26841212     0.38760
H1193       H  0.28277434  0.94141510  0.15022535     0.41890
H1194       H  0.28850655  0.94377032  0.05382461     0.36680
H1195       H  0.33552475  0.53345758  0.95631684     0.42790
H1196       H  0.31152395  0.60098846  0.94268904     0.39210
H1197       H  0.29702735  0.97708990  0.26289264     0.44130
H1198       H  0.31829429  0.93840140  0.03575026     0.42850
H1199       H  0.29809963  0.63308707  0.95773437     0.42990
H1200       H  0.31227140  0.65622128  0.19660890     0.43340
C1201       C  0.30420421  0.80581328  0.09711078    -0.02720
C1202       C  0.04809837  0.80241155  0.61235501    -0.02720
O1203       O  0.12141263  0.73675926  0.43714044    -0.75530
O1204       O  0.14505751  0.71021516  0.49208267    -0.54430
C1205       C  0.12598591  0.72997293  0.48024065     0.78200
O1206       O  0.12238450  0.61898639  0.26852164    -0.60130
O1207       O  0.14593601  0.64421977  0.21171903    -0.53160
C1208       C  0.12779250  0.62407888  0.22514503     0.70220
O1209       O  0.11799000  0.61623404  0.41791527    -0.74690
O1210       O  0.14277958  0.63994527  0.47554670    -0.55250
C1211       C  0.12357572  0.62153433  0.46042756     0.76220
O1212       O  0.12172127  0.74254884  0.28530306    -0.59830
O1213       O  0.14282205  0.71508720  0.22593045    -0.52950
C1214       C  0.12554087  0.73523819  0.24251002     0.72810
Zr1215     Zr  0.13718100  0.72357220  0.35765985     2.54710
O1216       O  0.08785846  0.71638273  0.35403829    -0.80400
O1217       O  0.13518888  0.78006475  0.36648498    -0.93810
Zr1218     Zr  0.13720775  0.63304493  0.34674220     2.64680
O1219       O  0.08742889  0.63207213  0.34520938    -0.98770
O1220       O  0.14411287  0.57709994  0.34375296    -0.80830
O1221       O  0.13695490  0.67658488  0.39886517    -0.84190
O1222       O  0.13617230  0.67994487  0.30565006    -2.18900
O1223       O  0.23205345  0.73930671  0.26766975    -0.67580
O1224       O  0.20795180  0.71355875  0.21185440    -0.52140
C1225       C  0.22664637  0.73316705  0.22460902     0.71190
O1226       O  0.23261049  0.61669215  0.42828712    -0.60480
O1227       O  0.20995007  0.64268154  0.48626164    -0.52460
C1228       C  0.22845807  0.62283140  0.47234283     0.73000
O1229       O  0.22313059  0.61249890  0.26731241    -0.71880
O1230       O  0.20078963  0.63988442  0.21051152    -0.50560
C1231       C  0.21687257  0.61794057  0.22417513     0.74380
O1232       O  0.23618929  0.73772081  0.41932984    -0.67210
O1233       O  0.21250196  0.71236036  0.47764627    -0.54410
C1234       C  0.23141778  0.73128849  0.46225497     0.72760
Zr1235     Zr  0.21693182  0.72318325  0.34625849     2.77540
O1236       O  0.26661873  0.72402279  0.34691413    -0.97960
O1237       O  0.21133365  0.77962973  0.34720676    -0.78780
Zr1238     Zr  0.21666047  0.63094061  0.34839179     2.70070
O1239       O  0.26620480  0.63115103  0.33813530    -0.80030
O1240       O  0.21319309  0.57461026  0.35721065    -0.99110
Zr1241     Zr  0.17756582  0.67694389  0.44402408     2.21500
Zr1242     Zr  0.17626475  0.67907404  0.25671258     2.11130
O1243       O  0.21753786  0.67693076  0.30105342    -2.47800
O1244       O  0.21703876  0.67723963  0.39327593    -0.79820
O1245       O  0.17572348  0.72502034  0.30495915    -0.72020
O1246       O  0.17654773  0.63115734  0.39520519    -2.32970
O1247       O  0.17842981  0.72396813  0.39882973    -2.29180
O1248       O  0.17716930  0.63208129  0.30114449    -0.73770
H1249       H  0.11966568  0.68028508  0.28742578     0.78220
H1250       H  0.17616793  0.61244405  0.41406809     0.79310
H1251       H  0.23342001  0.67644658  0.28054937     0.81540
H1252       H  0.17898417  0.74216401  0.41884445     0.79140
H1253       H  0.15535963  0.57393355  0.31505343     0.42180
H1254       H  0.20989020  0.56666017  0.32525875     0.41150
H1255       H  0.27246967  0.64857052  0.35811940     0.40830
H1256       H  0.27227505  0.70512335  0.32926666     0.38760
H1257       H  0.20643107  0.78518580  0.31476173     0.41890
H1258       H  0.14407646  0.78449745  0.39669577     0.36680
H1259       H  0.08442428  0.69644673  0.37058278     0.42790
H1260       H  0.08220968  0.64587288  0.31900265     0.39210
H1261       H  0.27208971  0.74185227  0.32689055     0.44130
H1262       H  0.11557019  0.78487186  0.37212273     0.42850
H1263       H  0.08301053  0.61074548  0.33427383     0.42990
H1264       H  0.23203466  0.56781136  0.36457334     0.43340
O1265       O  0.35877273  0.73534856  0.67375529    -0.75530
O1266       O  0.33856079  0.76378868  0.73292401    -0.54430
C1267       C  0.35528832  0.74300475  0.71660494     0.78200
O1268       O  0.36169514  0.86248977  0.53823830    -0.60130
O1269       O  0.33671839  0.83858528  0.48114023    -0.53160
C1270       C  0.35557190  0.85742203  0.49600761     0.70220
O1271       O  0.36178799  0.86043983  0.68497535    -0.74690
O1272       O  0.33873360  0.83407470  0.74224906    -0.55250
C1273       C  0.35669147  0.85442944  0.72808596     0.76220
O1274       O  0.35897116  0.73925567  0.52152408    -0.59830
O1275       O  0.33547103  0.76709158  0.46717765    -0.52950
C1276       C  0.35432452  0.74694270  0.47875711     0.72810
Zr1277     Zr  0.34215895  0.75247271  0.60035828     2.54710
O1278       O  0.39165320  0.74650347  0.60335473    -0.80400
O1279       O  0.33394678  0.69744134  0.58862234    -0.93810
Zr1280     Zr  0.34622185  0.84273098  0.60968918     2.64680
O1281       O  0.39528899  0.83213593  0.61030793    -0.98770
O1282       O  0.35006572  0.89912385  0.61190144    -0.80830
O1283       O  0.34542842  0.79617270  0.65190741    -0.84190
O1284       O  0.34442271  0.79916868  0.55820444    -2.18900
O1285       O  0.24376419  0.74164318  0.53895940    -0.67580
O1286       O  0.26826550  0.76582521  0.48045911    -0.52140
C1287       C  0.24907310  0.74728222  0.49593626     0.71190
O1288       O  0.25660926  0.86476843  0.69162147    -0.60480
O1289       O  0.28037878  0.83847645  0.74792745    -0.52460
C1290       C  0.26317946  0.85950449  0.73470795     0.73000
O1291       O  0.24887868  0.86231115  0.53051524    -0.71880
O1292       O  0.27288713  0.83823752  0.47210513    -0.50560
C1293       C  0.25411772  0.85772783  0.48627910     0.74380
O1294       O  0.24917183  0.73930295  0.69000560    -0.67210
O1295       O  0.27438396  0.76421316  0.74523163    -0.54410
C1296       C  0.25564589  0.74446544  0.73280960     0.72760
Zr1297     Zr  0.26235643  0.75747022  0.61215081     2.77540
O1298       O  0.21347562  0.76716793  0.62117634    -0.97960
O1299       O  0.25965613  0.70071060  0.60955162    -0.78780
Zr1300     Zr  0.26622945  0.84889298  0.61002954     2.70070
O1301       O  0.21699722  0.85720049  0.61637532    -0.80030
O1302       O  0.27778683  0.90365985  0.60632940    -0.99110
Zr1303     Zr  0.30565174  0.79980810  0.70110667     2.21500
Zr1304     Zr  0.30318529  0.80123124  0.51412952     2.11130
O1305       O  0.26351146  0.80295457  0.56466759    -2.47800
O1306       O  0.26412471  0.80336520  0.65783916    -0.79820
O1307       O  0.30073748  0.75451834  0.55957434    -0.72020
O1308       O  0.30637985  0.84635717  0.65566924    -2.32970
O1309       O  0.30373955  0.75373227  0.65303268    -2.29180
O1310       O  0.30622095  0.84663314  0.56294866    -0.73770
H1311       H  0.36047990  0.79892973  0.53813198     0.78220
H1312       H  0.30771188  0.86470349  0.67520420     0.79310
H1313       H  0.24699823  0.80375169  0.54649407     0.81540
H1314       H  0.30354567  0.73507134  0.67200603     0.79140
H1315       H  0.33243511  0.90586610  0.62604917     0.42180
H1316       H  0.28479117  0.90664958  0.57399583     0.41150
H1317       H  0.20994939  0.83780525  0.63096319     0.40830
H1318       H  0.20743689  0.77469291  0.59023166     0.38760
H1319       H  0.26917364  0.69467831  0.58008107     0.41890
H1320       H  0.31809089  0.69395680  0.60969217     0.36680
H1321       H  0.39832665  0.76686616  0.61497162     0.42790
H1322       H  0.39986985  0.82428500  0.57854222     0.39210
H1323       H  0.20552276  0.74601802  0.62422551     0.44130
H1324       H  0.34953927  0.68684878  0.60376824     0.42850
H1325       H  0.40388486  0.85303530  0.61167572     0.42990
H1326       H  0.25981870  0.91421183  0.60699250     0.43340
C1327       C  0.30243639  0.55069126  0.60880436    -0.02720
C1328       C  0.05213913  0.55002657  0.10078824    -0.02720
C1329       C  0.07165907  0.57121036  0.18151359    -0.02080
C1330       C  0.07215972  0.57187979  0.13136344     0.07600
C1331       C  0.09106372  0.59483731  0.11209799    -0.02200
C1332       C  0.10853364  0.61280377  0.14202252    -0.02200
C1333       C  0.11100451  0.60535979  0.19026912     0.07730
C1334       C  0.09421803  0.58088300  0.20701943    -0.02390
Br1335     Br  0.10056653  0.55827646  0.26444700    -0.00940
Br1336     Br  0.03860508  0.57157577  0.21999466    -0.01010
Br1337     Br  0.12820175  0.64801426  0.11636997    -0.00970
Br1338     Br  0.09211641  0.60561429  0.04605104    -0.00960
C1339       C  0.26949520  0.58792444  0.49386762    -0.02080
C1340       C  0.24617699  0.60521457  0.50860653     0.07600
C1341       C  0.23964517  0.60312793  0.55743782    -0.02200
C1342       C  0.25650081  0.58561484  0.58948385    -0.02200
C1343       C  0.28045097  0.56817262  0.57403331     0.07730
C1344       C  0.28195110  0.56577085  0.52342483    -0.02390
Br1345     Br  0.28946913  0.52746653  0.48871815    -0.00940
Br1346     Br  0.28672655  0.59377445  0.43307556    -0.01010
Br1347     Br  0.24525185  0.58680134  0.65439526    -0.00970
Br1348     Br  0.20812136  0.62533553  0.58243890    -0.00960
C1349       C  0.06882648  0.78348930  0.52844266    -0.02080
C1350       C  0.07119547  0.78522085  0.57857612     0.07600
C1351       C  0.09642926  0.77071015  0.59481427    -0.02200
C1352       C  0.11473525  0.75374478  0.56349192    -0.02200
C1353       C  0.10743995  0.74700929  0.51656509     0.07730
C1354       C  0.08221600  0.75995869  0.50221359    -0.02390
Br1355     Br  0.06335382  0.74528829  0.44750797    -0.00940
Br1356     Br  0.05920712  0.81825835  0.48827994    -0.01010
Br1357     Br  0.14943979  0.73878551  0.58595079    -0.00970
Br1358     Br  0.10653583  0.77023938  0.65995674    -0.00960
C1359       C  0.29132603  0.76094025  0.15931389    -0.02080
C1360       C  0.28197110  0.78477829  0.12674739     0.07600
C1361       C  0.25214788  0.78670568  0.12368742    -0.02200
C1362       C  0.23455535  0.77099027  0.15647392    -0.02200
C1363       C  0.24470344  0.74899957  0.18826301     0.07730
C1364       C  0.27298546  0.74346303  0.18813218    -0.02390
Br1365     Br  0.28670826  0.71193742  0.23054661    -0.00940
Br1366     Br  0.32930399  0.75167726  0.17118339    -0.01010
Br1367     Br  0.19590626  0.78075533  0.16031022    -0.00970
Br1368     Br  0.23195912  0.80450563  0.07215043    -0.00960
C1369       C  0.41214523  0.62206977  0.30208388    -0.02080
C1370       C  0.41297717  0.65560986  0.30349078     0.07600
C1371       C  0.39961837  0.67088005  0.26485148    -0.02200
C1372       C  0.38974203  0.65368383  0.22613363    -0.02200
C1373       C  0.39262543  0.62109794  0.22393832     0.07730
C1374       C  0.40533331  0.60575955  0.26079408    -0.02390
Br1375     Br  0.41305152  0.56179255  0.25408641    -0.00940
Br1376     Br  0.41249871  0.59665584  0.35728724    -0.01010
Br1377     Br  0.37334300  0.67470108  0.17333667    -0.00970
Br1378     Br  0.39198934  0.71483052  0.26315445    -0.00960
C1379       C  0.46931526  0.68402665  0.28175189    -0.02080
C1380       C  0.44973944  0.69753449  0.31387077     0.07600
C1381       C  0.45131991  0.73146810  0.31594864    -0.02200
C1382       C  0.47388841  0.74743733  0.29482540    -0.02200
C1383       C  0.49516515  0.73112846  0.27224142     0.07730
C1384       C  0.49433267  0.69865327  0.27232429    -0.02390
Br1385     Br  0.02422100  0.67502559  0.24479360    -0.00940
Br1386     Br  0.45760172  0.66484335  0.22387784    -0.01010
Br1387     Br  0.47566010  0.79228562  0.29255835    -0.00970
Br1388     Br  0.42217693  0.75928880  0.33684913    -0.00960
C1389       C  0.46053171  0.63893407  0.45749806    -0.02080
C1390       C  0.48582797  0.62507836  0.44298150     0.07600
C1391       C  0.49098968  0.62370591  0.39433445    -0.02200
C1392       C  0.47159760  0.63513885  0.36146592    -0.02200
C1393       C  0.44715458  0.65216429  0.37603198     0.07730
C1394       C  0.44047981  0.64767845  0.42480023    -0.02390
Br1395     Br  0.40299536  0.64453774  0.44877889    -0.00940
Br1396     Br  0.45188793  0.64925619  0.52218194    -0.01010
Br1397     Br  0.47539607  0.61437946  0.30165364    -0.00970
Br1398     Br  0.02566426  0.60732492  0.37145264    -0.00960
C1399       C  0.36151764  0.71339031  0.40489172    -0.02080
C1400       C  0.37261054  0.73103131  0.44160200     0.07600
C1401       C  0.40134978  0.72950756  0.44704144    -0.02200
C1402       C  0.41885432  0.71334833  0.41455988    -0.02200
C1403       C  0.40809158  0.69487779  0.37639420     0.07730
C1404       C  0.37825754  0.69360986  0.37563040    -0.02390
Br1405     Br  0.35762554  0.66023012  0.34669030    -0.00940
Br1406     Br  0.32213500  0.71311258  0.39935644    -0.01010
Br1407     Br  0.45811722  0.71813024  0.42412382    -0.00970
Br1408     Br  0.41718335  0.74929469  0.50085343    -0.00960
C1409       C  0.13371490  0.91748940  0.29385180    -0.02080
C1410       C  0.15490569  0.90320459  0.32244265     0.07600
C1411       C  0.15646642  0.86937421  0.31903887    -0.02200
C1412       C  0.14183884  0.85292977  0.28391579    -0.02200
C1413       C  0.12303674  0.86819217  0.25514877     0.07730
C1414       C  0.11883511  0.90009998  0.26077879    -0.02390
Br1415     Br  0.09483066  0.92037012  0.21691378    -0.00940
Br1416     Br  0.12518013  0.96167361  0.29212884    -0.01010
Br1417     Br  0.15045364  0.80998734  0.26938180    -0.00970
Br1418     Br  0.17467709  0.84217644  0.36269824    -0.00960
C1419       C  0.22571417  0.98605873  0.28555781    -0.02080
C1420       C  0.21698382  0.98517272  0.23835515     0.07600
C1421       C  0.19632142  0.96423710  0.22732592    -0.02200
C1422       C  0.18807354  0.94120505  0.26008302    -0.02200
C1423       C  0.19248013  0.94468723  0.31050491     0.07730
C1424       C  0.21409976  0.96629921  0.32093060    -0.02390
Br1425     Br  0.22767894  0.97231850  0.38351882    -0.00940
Br1426     Br  0.25201786  0.01754101  0.30288418    -0.01010
Br1427     Br  0.18301927  0.90182589  0.22728016    -0.00970
Br1428     Br  0.18201012  0.96407859  0.16437438    -0.00960
C1429       C  0.11341532  0.94767301  0.43801611    -0.02080
C1430       C  0.11666363  0.97953453  0.44661867     0.07600
C1431       C  0.13703796  0.49560591  0.42151608    -0.02200
C1432       C  0.15326946  0.98043382  0.38632194    -0.02200
C1433       C  0.15393870  0.94645922  0.38226635     0.07730
C1434       C  0.13274403  0.93092479  0.41003305    -0.02390
Br1435     Br  0.13118087  0.88651987  0.41992256    -0.00940
Br1436     Br  0.08246557  0.92681149  0.46715764    -0.01010
Br1437     Br  0.16914312  0.50980017  0.34287578    -0.00970
Br1438     Br  0.14422506  0.53846793  0.43905884    -0.00960
C1439       C  0.22150914  0.90265451  0.46501443    -0.02080
C1440       C  0.23691062  0.87642382  0.45034604     0.07600
C1441       C  0.23612332  0.87015310  0.40156525    -0.02200
C1442       C  0.21949988  0.88853667  0.37045847    -0.02200
C1443       C  0.19756454  0.90890683  0.38696789     0.07730
C1444       C  0.20027142  0.91597348  0.43713084    -0.02390
Br1445     Br  0.17987616  0.94664472  0.47391107    -0.00940
Br1446     Br  0.23412191  0.92548915  0.51960861    -0.01010
Br1447     Br  0.22838237  0.88380853  0.30516475    -0.00970
Br1448     Br  0.25824378  0.83655328  0.37549573    -0.00960
C1449       C  0.15311342  0.62052728  0.82619599    -0.02080
C1450       C  0.15872974  0.65369374  0.82236689     0.07600
C1451       C  0.14560936  0.66890460  0.78314897    -0.02200
C1452       C  0.12634083  0.65315463  0.75487108    -0.02200
C1453       C  0.11957180  0.62170063  0.76276515     0.07730
C1454       C  0.13256062  0.60577297  0.79911414    -0.02390
Br1455     Br  0.12192081  0.56296638  0.81158990    -0.00940
Br1456     Br  0.17523271  0.59136652  0.85993718    -0.01010
Br1457     Br  0.10549619  0.67625332  0.70878097    -0.00970
Br1458     Br  0.15023641  0.71230730  0.76703421    -0.00960
C1459       C  0.15008424  0.73565234  0.95094830    -0.02080
C1460       C  0.12226269  0.73870916  0.94014381     0.07600
C1461       C  0.11204739  0.72331308  0.90129189    -0.02200
C1462       C  0.12721329  0.69900376  0.88041624    -0.02200
C1463       C  0.15656023  0.69598764  0.88819828     0.07730
C1464       C  0.16711195  0.71444526  0.92626881    -0.02390
Br1465     Br  0.20525835  0.71479652  0.94408664    -0.00940
Br1466     Br  0.16562641  0.76500693  0.99495628    -0.01010
Br1467     Br  0.10225018  0.66644108  0.85986747    -0.00970
Br1468     Br  0.07611542  0.73399521  0.87831619    -0.00960
C1469       C  0.17731828  0.63937632  0.93954889    -0.02080
C1470       C  0.19163856  0.65230537  0.89860305     0.07600
C1471       C  0.22044779  0.64463631  0.89764944    -0.02200
C1472       C  0.23069889  0.62003380  0.92501040    -0.02200
C1473       C  0.21843789  0.61211134  0.96826536     0.07730
C1474       C  0.19143577  0.62260359  0.97548307    -0.02390
Br1475     Br  0.17360992  0.61332812  0.03440817    -0.00940
Br1476     Br  0.13826361  0.64079501  0.94885293    -0.01010
Br1477     Br  0.26026088  0.59528429  0.89908480    -0.00970
Br1478     Br  0.25015847  0.67155722  0.87759762    -0.00960
C1479       C  0.23454427  0.69426827  0.76375153    -0.02080
C1480       C  0.23914739  0.72656981  0.76912425     0.07600
C1481       C  0.22400484  0.74244305  0.80374373    -0.02200
C1482       C  0.20212628  0.72754154  0.82846992    -0.02200
C1483       C  0.19846862  0.69355024  0.82750067     0.07730
C1484       C  0.21526558  0.67788511  0.79240252    -0.02390
Br1485     Br  0.21459067  0.63311289  0.78280322    -0.00940
Br1486     Br  0.25682599  0.67162563  0.71846708    -0.01010
Br1487     Br  0.17493313  0.75828613  0.84845252    -0.00970
Br1488     Br  0.23181691  0.78639062  0.81402489    -0.00960
C1489       C  0.09723798  0.86366741  0.67321705    -0.02080
C1490       C  0.08962134  0.86215084  0.72095421     0.07600
C1491       C  0.07013498  0.84022515  0.73483827    -0.02200
C1492       C  0.05963211  0.81838805  0.70235447    -0.02200
C1493       C  0.06388024  0.82206031  0.65191061     0.07730
C1494       C  0.08500862  0.84403113  0.63923039    -0.02390
Br1495     Br  0.09679643  0.85078585  0.57518321    -0.00940
Br1496     Br  0.12339168  0.89517469  0.65384201    -0.01010
Br1497     Br  0.04840417  0.78028738  0.73399961    -0.00970
Br1498     Br  0.06074771  0.83775070  0.80095327    -0.00960
C1499       C  0.06794183  0.98792030  0.00017818    -0.02080
C1500       C  0.09059108  0.00158810  0.97684672     0.07600
C1501       C  0.10407121  0.52597451  0.00191150    -0.02200
C1502       C  0.09604811  0.53421626  0.04812692    -0.02200
C1503       C  0.06971860  0.52664586  0.06617086     0.07730
C1504       C  0.05966134  0.49823892  0.04570600    -0.02390
Br1505     Br  0.04250194  0.46612216  0.08270690    -0.00940
Br1506     Br  0.04677808  0.95538936  0.97053724    -0.01010
Br1507     Br  0.12657358  0.53776694  0.09040667    -0.00970
Br1508     Br  0.13415831  0.54997501  0.97651176    -0.00960
C1509       C  0.26104715  0.87247495  0.03274084    -0.02080
C1510       C  0.26284815  0.86421751  0.98521999     0.07600
C1511       C  0.27983158  0.83926621  0.97229127    -0.02200
C1512       C  0.29588248  0.82333002  0.00590010    -0.02200
C1513       C  0.29094201  0.82732264  0.05621870     0.07730
C1514       C  0.27447333  0.85459917  0.06771840    -0.02390
Br1515     Br  0.26684905  0.86796195  0.13100842    -0.00940
Br1516     Br  0.23801166  0.90781419  0.04984397    -0.01010
Br1517     Br  0.32827197  0.80504199  0.97639559    -0.00970
Br1518     Br  0.28048397  0.82655131  0.90711308    -0.00960
C1519       C  0.28273682  0.51122091  0.73210752    -0.02080
C1520       C  0.26251856  0.98967980  0.72095153     0.07600
C1521       C  0.25342991  0.98900715  0.67395484    -0.02200
C1522       C  0.26400139  0.50974890  0.63907335    -0.02200
C1523       C  0.28580213  0.53110108  0.64914560     0.07730
C1524       C  0.29058962  0.53443220  0.69935457    -0.02390
Br1525     Br  0.29544599  0.57404332  0.73145638    -0.00940
Br1526     Br  0.29695176  0.01198827  0.79510088    -0.01010
Br1527     Br  0.24776875  0.50663229  0.57811703    -0.00970
Br1528     Br  0.22762380  0.95701413  0.65623766    -0.00960
C1529       C  0.33846335  0.62120514  0.67781893    -0.02080
C1530       C  0.35902545  0.60516103  0.70186497     0.07600
C1531       C  0.36357784  0.57386808  0.69145598    -0.02200
C1532       C  0.34578051  0.55711453  0.66232673    -0.02200
C1533       C  0.32356866  0.57221959  0.63739237     0.07730
C1534       C  0.32204722  0.60583653  0.64376692    -0.02390
Br1535     Br  0.29911781  0.63342432  0.60849540    -0.00940
Br1536     Br  0.33101517  0.66371207  0.69681984    -0.01010
Br1537     Br  0.35194430  0.51254261  0.66530179    -0.00970
Br1538     Br  0.39456039  0.55364166  0.71927665    -0.00960
C1539       C  0.49603402  0.57773435  0.01008324    -0.02080
C1540       C  0.50012638  0.60986401  0.00899484     0.07600
C1541       C  0.51888799  0.62341277  0.03875736    -0.02200
C1542       C  0.03127793  0.60520675  0.07350680    -0.02200
C1543       C  0.03267768  0.57140219  0.06928099     0.07730
C1544       C  0.01297724  0.55832973  0.03718514    -0.02390
Br1545     Br  0.00176776  0.51553296  0.03482911    -0.00940
Br1546     Br  0.46496368  0.56129547  0.97602989    -0.01010
Br1547     Br  0.03621212  0.62872098  0.13080036    -0.00970
Br1548     Br  0.52797476  0.66689777  0.03107777    -0.00960
C1549       C  0.37151552  0.76185564  0.04936059    -0.02080
C1550       C  0.36010182  0.73819270  0.02242364     0.07600
C1551       C  0.33174815  0.73353056  0.02380792    -0.02200
C1552       C  0.31424706  0.75481242  0.04758314    -0.02200
C1553       C  0.32499765  0.78063858  0.07449229     0.07730
C1554       C  0.35482079  0.78079044  0.07868481    -0.02390
Br1555     Br  0.37638514  0.79932904  0.12792970    -0.00940
Br1556     Br  0.41053621  0.76986193  0.04268496    -0.01010
Br1557     Br  0.27587090  0.74912835  0.03463800    -0.00970
Br1558     Br  0.31684099  0.69933057  0.98759021    -0.00960
C1559       C  0.01295974  0.72841900  0.67401011    -0.02080
C1560       C  0.48817244  0.74116658  0.69033765     0.07600
C1561       C  0.48165240  0.77176134  0.67867425    -0.02200
C1562       C  0.50181788  0.79143131  0.65904877    -0.02200
C1563       C  0.02694825  0.77908376  0.63808828     0.07730
C1564       C  0.03025618  0.74552446  0.64299982    -0.02390
Br1565     Br  0.05611721  0.71973252  0.60953065    -0.00940
Br1566     Br  0.02498715  0.68919845  0.70029884    -0.01010
Br1567     Br  0.49450354  0.83494464  0.67116212    -0.00970
Br1568     Br  0.44536201  0.78726993  0.69486624    -0.00960
C1569       C  0.31762770  0.82745266  0.18160339    -0.02080
C1570       C  0.31990185  0.82943511  0.13153305     0.07600
C1571       C  0.33829369  0.85390837  0.11528909    -0.02200
C1572       C  0.35490974  0.87113246  0.14714897    -0.02200
C1573       C  0.35722155  0.86147313  0.19421230     0.07730
C1574       C  0.33899693  0.83785132  0.20979743    -0.02390
Br1575     Br  0.34361324  0.81542645  0.26789980    -0.00940
Br1576     Br  0.28404659  0.82074176  0.21760000    -0.01010
Br1577     Br  0.37519672  0.90721960  0.12537111    -0.00970
Br1578     Br  0.34483552  0.86344810  0.05023052    -0.00960
C1579       C  0.04587893  0.50750090  0.16687180    -0.02080
C1580       C  0.03367785  0.52976475  0.13561240     0.07600
C1581       C  0.50430781  0.53332549  0.14087195    -0.02200
C1582       C  0.48855323  0.51000829  0.16286067    -0.02200
C1583       C  0.50080230  0.98953512  0.19433820     0.07730
C1584       C  0.02945904  0.99024669  0.19869649    -0.02390
Br1585     Br  0.04612242  0.96924688  0.25058400    -0.00940
Br1586     Br  0.08483660  0.49918256  0.16781729    -0.01010
Br1587     Br  0.44939397  0.50945934  0.15503524    -0.00970
Br1588     Br  0.48429298  0.57238650  0.13502119    -0.00960
C1589       C  0.51047950  0.87366570  0.54602970    -0.02080
C1590       C  0.49149535  0.85797807  0.51871492     0.07600
C1591       C  0.49040760  0.82537269  0.52144097    -0.02200
C1592       C  0.50852958  0.80816894  0.55007259    -0.02200
C1593       C  0.02802216  0.82358012  0.58042412     0.07730
C1594       C  0.02623840  0.85768620  0.57998116    -0.02390
Br1595     Br  0.03781946  0.88613688  0.62862994    -0.00940
Br1596     Br  0.51621459  0.91746370  0.53322241    -0.01010
Br1597     Br  0.50643270  0.76308798  0.54193005    -0.00970
Br1598     Br  0.46485376  0.80421009  0.48174780    -0.00960
C1599       C  0.32483451  0.49717966  0.57035079    -0.02080
C1600       C  0.32319393  0.53102798  0.57487371     0.07600
C1601       C  0.34219868  0.54792401  0.54439311    -0.02200
C1602       C  0.36055054  0.53241613  0.51305085    -0.02200
C1603       C  0.35985051  0.99999434  0.50754769     0.07730
C1604       C  0.34150085  0.98273917  0.53518451    -0.02390
Br1605     Br  0.33770853  0.93870906  0.52094237    -0.00940
Br1606     Br  0.30850512  0.96711775  0.61211202    -0.01010
Br1607     Br  0.38694552  0.55563762  0.47574575    -0.00970
Br1608     Br  0.34317585  0.59297799  0.53929201    -0.00960
C1609       C  0.38446953  0.94765304  0.89932473    -0.02080
C1610       C  0.41388012  0.94766735  0.89356525     0.07600
C1611       C  0.42836825  0.96792453  0.92594584    -0.02200
C1612       C  0.41515824  0.98123724  0.96565036    -0.02200
C1613       C  0.38676745  0.98163010  0.96973938     0.07730
C1614       C  0.37148804  0.96598886  0.93466305    -0.02390
Br1615     Br  0.33172282  0.96778108  0.93467115    -0.00940
Br1616     Br  0.35916954  0.92260848  0.86349178    -0.01010
Br1617     Br  0.43592014  0.49241024  0.02010278    -0.00970
Br1618     Br  0.46693874  0.97741830  0.92197659    -0.00960
C1619       C  0.47964946  0.94163861  0.81899645    -0.02080
C1620       C  0.45108172  0.94850165  0.82920978     0.07600
C1621       C  0.44214078  0.97901678  0.81316469    -0.02200
C1622       C  0.46016116  0.49849980  0.78731103    -0.02200
C1623       C  0.48441900  0.48646125  0.76830132     0.07730
C1624       C  0.99331222  0.95699746  0.78219430    -0.02390
Br1625     Br  0.02614993  0.93908970  0.75451731    -0.00940
Br1626     Br  0.50628575  0.92665551  0.86347769    -0.01010
Br1627     Br  0.45194257  0.54164426  0.77550567    -0.00970
Br1628     Br  0.40486197  0.49451674  0.81808887    -0.00960
C1629       C  0.40272566  0.87368758  0.83141818    -0.02080
C1630       C  0.41223278  0.90545982  0.82183422     0.07600
C1631       C  0.40263430  0.91742970  0.77774506    -0.02200
C1632       C  0.37987029  0.90381517  0.75564393    -0.02200
C1633       C  0.37376116  0.87206731  0.76251752     0.07730
C1634       C  0.38805745  0.85657535  0.79750044    -0.02390
Br1635     Br  0.39107955  0.81178409  0.79431822    -0.00940
Br1636     Br  0.40412602  0.85168280  0.89025992    -0.01010
Br1637     Br  0.35784703  0.92925521  0.71518885    -0.00970
Br1638     Br  0.42522599  0.93869705  0.73217686    -0.00960
C1639       C  0.46422064  0.87701131  0.86833814    -0.02080
C1640       C  0.44733909  0.90161430  0.88780761     0.07600
C1641       C  0.44652661  0.90300864  0.93763516    -0.02200
C1642       C  0.46895554  0.89356913  0.96236860    -0.02200
C1643       C  0.48478762  0.86834330  0.94557801     0.07730
C1644       C  0.48129677  0.85901628  0.89820522    -0.02390
Br1645     Br  0.00065402  0.82345709  0.87247667    -0.00940
Br1646     Br  0.46632430  0.86841141  0.80159351    -0.01010
Br1647     Br  0.47655857  0.91777254  0.01785647    -0.00970
Br1648     Br  0.41346091  0.90332061  0.97627351    -0.00960
C1649       C  0.93074348  0.42569498  0.85745149    -0.02720
O1650       O  0.98625681  0.48753069  0.42119006    -0.75450
O1651       O  0.96078103  0.46375190  0.47869376    -0.54430
C1652       C  0.98015074  0.48206722  0.46359192     0.78200
O1653       O  0.88340852  0.48818232  0.26839422    -0.60130
O1654       O  0.90809412  0.46062687  0.21333366    -0.53160
C1655       C  0.89073447  0.48165227  0.22596574     0.70220
O1656       O  0.87342375  0.49029537  0.42806756    -0.74690
O1657       O  0.89547059  0.46395678  0.48622108    -0.55250
C1658       C  0.87762285  0.48391829  0.47164870     0.76220
O1659       O  0.98753141  0.48129261  0.27237508    -0.59830
O1660       O  0.96552868  0.45313325  0.21668633    -0.52950
C1661       C  0.98355276  0.47322245  0.22978706     0.72810
Zr1662     Zr  0.97082685  0.46817667  0.34979789     2.54710
O1663       O  0.97246556  0.02495790  0.34429538    -0.80400
O1664       O  0.52019328  0.45990580  0.35190893    -0.93810
Zr1665     Zr  0.89063298  0.47416238  0.34982066     2.64680
O1666       O  0.89154406  0.02998977  0.35583030    -0.98770
O1667       O  0.84102330  0.47452381  0.34250070    -0.80830
O1668       O  0.93022753  0.47330081  0.39623530    -0.84190
O1669       O  0.93165358  0.47091680  0.30416702    -2.18900
O1670       O  0.98927965  0.36419880  0.29296365    -0.67580
O1671       O  0.96582236  0.38664267  0.23298733    -0.52140
C1672       C  0.98499915  0.36942615  0.24997007     0.71190
O1673       O  0.86635203  0.36895884  0.42029933    -0.60480
O1674       O  0.89161639  0.39230237  0.47758465    -0.52460
C1675       C  0.87224123  0.37418289  0.46260932     0.73000
O1676       O  0.86830037  0.37504012  0.27166303    -0.71880
O1677       O  0.89867956  0.39056633  0.21608688    -0.50560
C1678       C  0.87617135  0.37682810  0.22892034     0.74380
O1679       O  0.98263142  0.36803031  0.43959068    -0.67210
O1680       O  0.95606097  0.39400369  0.49317626    -0.54410
C1681       C  0.97561706  0.37471674  0.48183773     0.72760
Zr1682     Zr  0.96474022  0.37690587  0.36202370     2.77540
O1683       O  0.94278249  0.32736139  0.37709788    -0.97960
O1684       O  0.50879667  0.35019489  0.36554618    -0.78780
Zr1685     Zr  0.88598327  0.38381784  0.34885660     2.70070
O1686       O  0.88475340  0.32698100  0.34610122    -0.80030
O1687       O  0.83631162  0.38965777  0.35228807    -0.99110
Zr1688     Zr  0.92652308  0.42816580  0.44499127     2.21500
Zr1689     Zr  0.93144536  0.42296200  0.26100495     2.11130
O1690       O  0.92779041  0.37707951  0.30793068    -2.47800
O1691       O  0.92309116  0.38072697  0.40225533    -0.79820
O1692       O  0.97010053  0.42029390  0.31059664    -0.72020
O1693       O  0.88717951  0.42936739  0.39602849    -2.32970
O1694       O  0.96819192  0.42470484  0.40125576    -2.29180
O1695       O  0.88910736  0.42864088  0.30267325    -0.73770
H1696       H  0.93354094  0.48885532  0.28394183     0.78220
H1697       H  0.87051965  0.43058696  0.41451709     0.79310
H1698       H  0.92757870  0.35851487  0.28865590     0.81540
H1699       H  0.98401351  0.42457331  0.42112850     0.79140
H1700       H  0.83419739  0.46182669  0.36909760     0.42180
H1701       H  0.83187769  0.40468865  0.32717654     0.41150
H1702       H  0.88557238  0.31995001  0.37903924     0.40830
H1703       H  0.93546247  0.32158636  0.34636436     0.38760
H1704       H  0.52231907  0.36705762  0.37042764     0.41890
H1705       H  0.52352432  0.44743977  0.38043181     0.36680
H1706       H  0.95960613  0.03256446  0.36888472     0.42790
H1707       H  0.91024992  0.03396738  0.34379686     0.39210
H1708       H  0.95805533  0.31262671  0.38241314     0.44130
H1709       H  0.52795044  0.48072613  0.35887554     0.42850
H1710       H  0.87908920  0.03728965  0.33105959     0.42990
H1711       H  0.82902395  0.36942440  0.34123999     0.43340
O1712       O  0.98186746  0.23977938  0.92218410    -0.75530
O1713       O  0.96151333  0.21218009  0.98158485    -0.54430
C1714       C  0.97885731  0.23188749  0.96486671     0.78200
O1715       O  0.86703068  0.23308435  0.79246373    -0.60130
O1716       O  0.89009578  0.20739694  0.73363957    -0.53160
C1717       C  0.87185808  0.22662901  0.74956947     0.70220
O1718       O  0.86879278  0.22753274  0.94385248    -0.74690
O1719       O  0.89766910  0.20577291  0.99668099    -0.55250
C1720       C  0.87671844  0.22253062  0.98567079     0.76220
O1721       O  0.97792833  0.23460915  0.77005248    -0.59830
O1722       O  0.95335943  0.20616838  0.71788770    -0.52950
C1723       C  0.97214395  0.22595743  0.72825860     0.72810
Zr1724     Zr  0.96252252  0.22500798  0.85011000     2.54710
O1725       O  0.94975293  0.27995505  0.84708023    -0.80400
O1726       O  0.51095785  0.23576456  0.83830428    -0.93810
Zr1727     Zr  0.88306407  0.21483737  0.86530417     2.64680
O1728       O  0.87405108  0.26903880  0.88585007    -0.98770
O1729       O  0.83409124  0.20473788  0.86227883    -0.80830
O1730       O  0.92493539  0.22179526  0.90379178    -0.84190
O1731       O  0.92071811  0.22132464  0.81192775    -2.18900
O1732       O  0.98640979  0.12092824  0.78415038    -0.67580
O1733       O  0.95883949  0.14237628  0.72866676    -0.52140
C1734       C  0.97952160  0.12619715  0.74248572     0.71190
O1735       O  0.88517990  0.10761836  0.94163875    -0.60480
O1736       O  0.90894775  0.13563886  0.99599198    -0.52460
C1737       C  0.89240322  0.11406014  0.98371526     0.73000
O1738       O  0.87224282  0.11211768  0.78174594    -0.71880
O1739       O  0.89354949  0.14088326  0.72479402    -0.50560
C1740       C  0.87585027  0.12063306  0.73857506     0.74380
O1741       O  0.98945867  0.12185173  0.93253592    -0.67210
O1742       O  0.96522317  0.14654733  0.99038529    -0.54410
C1743       C  0.98439193  0.12822348  0.97546330     0.72760
Zr1744     Zr  0.97020320  0.13355834  0.85781748     2.77540
O1745       O  0.97446416  0.07697796  0.85847788    -0.97960
O1746       O  0.51971637  0.13997027  0.85443767    -0.78780
Zr1747     Zr  0.89060307  0.12353350  0.86069869     2.70070
O1748       O  0.89562142  0.06709572  0.85495341    -0.80030
O1749       O  0.84126923  0.11845180  0.87053851    -0.99110
Zr1750     Zr  0.93007039  0.17539622  0.94875690     2.21500
Zr1751     Zr  0.92430986  0.17391711  0.76820676     2.11130
O1752       O  0.92989929  0.12713511  0.81275224    -2.47800
O1753       O  0.93132511  0.12790198  0.90519145    -0.79820
O1754       O  0.96589823  0.17793063  0.80900231    -0.72020
O1755       O  0.88768272  0.16884470  0.90902058    -2.32970
O1756       O  0.96893689  0.18044880  0.89857811    -2.29180
O1757       O  0.88492062  0.16963597  0.81757839    -0.73770
H1758       H  0.91879224  0.23948673  0.79221476     0.78220
H1759       H  0.87254814  0.16684121  0.93090135     0.79310
H1760       H  0.93120323  0.10895554  0.79277287     0.81540
H1761       H  0.98594359  0.18172723  0.91528267     0.79140
H1762       H  0.83128912  0.18594039  0.88185091     0.42180
H1763       H  0.83337528  0.13169556  0.84570955     0.41150
H1764       H  0.90632074  0.06109786  0.88274116     0.40830
H1765       H  0.95817866  0.06960402  0.87612774     0.38760
H1766       H  0.52259360  0.15984220  0.83740111     0.41890
H1767       H  0.52007536  0.21925657  0.85668813     0.36680
H1768       H  0.94437084  0.28531563  0.87964449     0.42790
H1769       H  0.89166105  0.27982447  0.88034206     0.39210
H1770       H  0.99024092  0.07224788  0.87869411     0.44130
H1771       H  0.51458985  0.25541853  0.85536215     0.42850
H1772       H  0.86137300  0.27690139  0.86184317     0.42990
H1773       H  0.83727947  0.09677826  0.86061767     0.43340
O1774       O  0.70471924  0.47808788  0.97431945    -0.75530
O1775       O  0.74164969  0.46447516  0.92804539    -0.54430
C1776       C  0.73011957  0.47710306  0.96569484     0.78200
O1777       O  0.62977049  0.36877501  0.94555105    -0.60130
O1778       O  0.59425514  0.39086717  0.90577807    -0.53160
C1779       C  0.60445019  0.37327679  0.93802202     0.70220
O1780       O  0.71843852  0.37244073  0.95735184    -0.74690
O1781       O  0.75319326  0.39667942  0.91725004    -0.55250
C1782       C  0.74385442  0.37887349  0.95065079     0.76220
O1783       O  0.62541743  0.49940063  0.91696167    -0.59830
O1784       O  0.59529349  0.46087516  0.91444235    -0.52950
C1785       C  0.60379669  0.48675273  0.93301826     0.72810
Zr1786     Zr  0.66968616  0.47478763  0.92048106     2.54710
O1787       O  0.65336511  0.47700990  0.00140614    -0.80400
O1788       O  0.68442156  0.02889950  0.91844231    -0.93810
Zr1789     Zr  0.67445132  0.38306662  0.92204093     2.64680
O1790       O  0.67381412  0.38146343  0.00714586    -0.98770
O1791       O  0.67661666  0.32653734  0.91274868    -0.80830
O1792       O  0.69832252  0.43006343  0.92211289    -0.84190
O1793       O  0.64514727  0.42769300  0.92194781    -2.18900
O1794       O  0.63093316  0.48737692  0.76094359    -0.67580
O1795       O  0.59517150  0.46276424  0.79779398    -0.52140
C1796       C  0.60559332  0.48128071  0.76665441     0.71190
O1797       O  0.72030734  0.37026892  0.76106159    -0.60480
O1798       O  0.75441568  0.39321705  0.80306577    -0.52460
C1799       C  0.74543831  0.37538414  0.76956852     0.73000
O1800       O  0.63282332  0.37039827  0.75215316    -0.71880
O1801       O  0.59716069  0.39499880  0.78973745    -0.50560
C1802       C  0.60736275  0.37717277  0.75683535     0.74380
O1803       O  0.71906365  0.48152599  0.75203092    -0.67210
O1804       O  0.75364231  0.46114071  0.79545790    -0.54410
C1805       C  0.74440069  0.47604874  0.75896308     0.72760
Zr1806     Zr  0.67526655  0.47358430  0.78780760     2.77540
O1807       O  0.67307241  0.47573597  0.70272189    -0.97960
O1808       O  0.68039710  0.02990150  0.79319261    -0.78780
Zr1809     Zr  0.67555313  0.38237288  0.78893746     2.70070
O1810       O  0.68068606  0.37769693  0.70446500    -0.80030
O1811       O  0.67316606  0.32633772  0.80117616    -0.99110
Zr1812     Zr  0.72970121  0.42974500  0.85836690     2.21500
Zr1813     Zr  0.61802176  0.42739553  0.85260222     2.11130
O1814       O  0.64857259  0.42788463  0.78627249    -2.47800
O1815       O  0.70224278  0.42816178  0.78989360    -0.79820
O1816       O  0.64412885  0.47472489  0.85168879    -0.72020
O1817       O  0.70351054  0.38230484  0.85611004    -2.32970
O1818       O  0.70157432  0.47589598  0.85642065    -2.29180
O1819       O  0.64637781  0.38122549  0.85497166    -0.73770
H1820       H  0.63366173  0.42766809  0.94970371     0.78220
H1821       H  0.71521395  0.36405954  0.85667464     0.79310
H1822       H  0.63856985  0.42816082  0.75740194     0.81540
H1823       H  0.71313962  0.49414247  0.85642217     0.79140
H1824       H  0.69636548  0.32127836  0.91351318     0.42180
H1825       H  0.65374303  0.32241211  0.80955111     0.41150
H1826       H  0.68527953  0.39908909  0.69385557     0.40830
H1827       H  0.65808922  0.46154410  0.69356321     0.38760
H1828       H  0.68098759  0.03715135  0.76031426     0.41890
H1829       H  0.68654379  0.03266763  0.88461427     0.36680
H1830       H  0.65725444  0.45604945  0.01441664     0.42790
H1831       H  0.65620255  0.39112932  0.01696143     0.39210
H1832       H  0.66646530  0.49701193  0.69516538     0.44130
H1833       H  0.70335828  0.02949406  0.93025218     0.42850
H1834       H  0.67181667  0.35899357  0.01450991     0.42990
H1835       H  0.67544263  0.31728011  0.76944909     0.43340
C1836       C  0.67658088  0.17363232  0.85908520    -0.02720
C1837       C  0.67533712  0.42564942  0.35108872    -0.02720
C1838       C  0.92886810  0.17491489  0.34259150    -0.02720
O1839       O  0.99490853  0.12122298  0.66745573    -0.75530
O1840       O  0.51412286  0.09126718  0.72464115    -0.54430
C1841       C  0.49727142  0.11201366  0.70924411     0.78200
O1842       O  0.99099146  0.99288452  0.53930123    -0.60130
O1843       O  0.51670787  0.01601705  0.48134526    -0.53160
C1844       C  0.49714610  0.99805965  0.49678121     0.70220
O1845       O  0.99272860  0.99742395  0.68918544    -0.74690
O1846       O  0.51788374  0.02345885  0.74337207    -0.55250
C1847       C  0.49938124  0.00371168  0.73143732     0.76220
O1848       O  0.00218012  0.11911935  0.52060919    -0.59830
O1849       O  0.52047617  0.08605240  0.46700806    -0.52950
C1850       C  0.50449566  0.10928519  0.47852447     0.72810
Zr1851     Zr  0.51415302  0.10213195  0.59820214     2.54710
O1852       O  0.96446061  0.09799695  0.59531708    -0.80400
O1853       O  0.51719207  0.15811153  0.58937383    -0.93810
Zr1854     Zr  0.50694276  0.01219187  0.61052346     2.64680
O1855       O  0.95820465  0.02456304  0.61324010    -0.98770
O1856       O  0.49925473  0.45647914  0.61927199    -0.80830
O1857       O  0.50934091  0.05944405  0.65076582    -0.84190
O1858       O  0.51029418  0.05519701  0.55794050    -2.18900
O1859       O  0.61279803  0.10952973  0.53632429    -0.67580
O1860       O  0.58653868  0.08742453  0.47931722    -0.52140
C1861       C  0.60642273  0.10500904  0.49399829     0.71190
O1862       O  0.59598516  0.98946245  0.68865993    -0.60480
O1863       O  0.57217913  0.01756375  0.74425767    -0.52460
C1864       C  0.58910892  0.99618714  0.73138924     0.73000
O1865       O  0.60350856  0.98821482  0.52673438    -0.71880
O1866       O  0.58210199  0.01646601  0.46978953    -0.50560
C1867       C  0.59952441  0.99573072  0.48338806     0.74380
O1868       O  0.60960975  0.10845081  0.68506493    -0.67210
O1869       O  0.58134524  0.08840532  0.74122780    -0.54410
C1870       C  0.60221452  0.10489559  0.72792908     0.72760
Zr1871     Zr  0.59370769  0.09411575  0.60827942     2.77540
O1872       O  0.64308834  0.08691569  0.61252047    -0.97960
O1873       O  0.59446658  0.15091857  0.60573041    -0.78780
Zr1874     Zr  0.58707416  0.00272768  0.60668005     2.70070
O1875       O  0.63647418  0.99582286  0.61037229    -0.80030
O1876       O  0.57966302  0.44667293  0.60480659    -0.99110
Zr1877     Zr  0.54914160  0.05553422  0.69694407     2.21500
Zr1878     Zr  0.55153781  0.05164252  0.51319341     2.11130
O1879       O  0.59125839  0.04840855  0.56134651    -2.47800
O1880       O  0.59065489  0.04861598  0.65347894    -0.79820
O1881       O  0.55571073  0.09838351  0.55707997    -0.72020
O1882       O  0.54699413  0.00785477  0.65370014    -2.32970
O1883       O  0.55240406  0.10124993  0.64975874    -2.29180
O1884       O  0.54688644  0.00612032  0.56184418    -0.73770
H1885       H  0.99437499  0.05618334  0.53830483     0.78220
H1886       H  0.54525574  0.48995499  0.67400462     0.79310
H1887       H  0.60773161  0.04705763  0.54238674     0.81540
H1888       H  0.55302739  0.12000974  0.66857466     0.79140
H1889       H  0.51399978  0.44939928  0.64020815     0.42180
H1890       H  0.56309194  0.44436280  0.58562870     0.41150
H1891       H  0.64363731  0.01715461  0.61546818     0.40830
H1892       H  0.64846815  0.07584880  0.58335017     0.38760
H1893       H  0.58362776  0.15646713  0.57789729     0.41890
H1894       H  0.53298388  0.16251082  0.60941098     0.36680
H1895       H  0.95889831  0.08712007  0.62444726     0.42790
H1896       H  0.95350891  0.03058367  0.58088182     0.39210
H1897       H  0.65054498  0.10825123  0.60877916     0.44130
H1898       H  0.00113213  0.16677099  0.60652055     0.42850
H1899       H  0.94910517  0.00415442  0.61802783     0.42990
H1900       H  0.59466383  0.43843420  0.58462847     0.43340
O1901       O  0.99699906  0.35678986  0.02306042    -0.75530
O1902       O  0.52019089  0.33162666  0.96559513    -0.54430
C1903       C  0.50196039  0.35112018  0.97972963     0.78200
O1904       O  0.61195186  0.35764378  0.17542810    -0.60130
O1905       O  0.58763757  0.33345631  0.23370849    -0.53160
C1906       C  0.60696310  0.35134824  0.21903586     0.70220
O1907       O  0.59646669  0.36256662  0.01547131    -0.74690
O1908       O  0.57072882  0.33709083  0.96132065    -0.55250
C1909       C  0.58813506  0.35773083  0.97339293     0.76220
O1910       O  0.99682913  0.35993292  0.17495460    -0.59830
O1911       O  0.52250464  0.33654025  0.23133884    -0.52950
C1912       C  0.50291051  0.35433360  0.21705194     0.72810
Zr1913     Zr  0.51308832  0.34602067  0.10111022     2.54710
O1914       O  0.51925910  0.40175070  0.09926012    -0.80400
O1915       O  0.96336229  0.35142414  0.10480817    -0.93810
Zr1916     Zr  0.59307300  0.34640554  0.09717237     2.64680
O1917       O  0.59498902  0.40325192  0.09691011    -0.98770
O1918       O  0.64248706  0.34354943  0.08649900    -0.80830
O1919       O  0.55215462  0.34612795  0.05378690    -0.84190
O1920       O  0.55380860  0.34836643  0.14586867    -2.18900
O1921       O  0.00294383  0.23989478  0.19236779    -0.67580
O1922       O  0.52872534  0.26765515  0.24352571    -0.52140
C1923       C  0.51055299  0.24694710  0.23394223     0.71190
O1924       O  0.60818642  0.24307356  0.01790656    -0.60480
O1925       O  0.58348086  0.26980807  0.96436967    -0.52460
C1926       C  0.60327832  0.25159104  0.97596293     0.73000
O1927       O  0.61115612  0.24226944  0.16783500    -0.71880
O1928       O  0.58976209  0.26955426  0.22651723    -0.50560
C1929       C  0.60779383  0.25029388  0.21029400     0.74380
O1930       O  0.99331736  0.23921527  0.03956586    -0.67210
O1931       O  0.51575551  0.26421672  0.97960323    -0.54410
C1932       C  0.49726152  0.24599556  0.99664779     0.72760
Zr1933     Zr  0.51153729  0.25543933  0.11153988     2.77540
O1934       O  0.50131535  0.19998332  0.11560508    -0.97960
O1935       O  0.96320601  0.26836445  0.12172486    -0.78780
Zr1936     Zr  0.59107309  0.25376018  0.09538970     2.70070
O1937       O  0.58051897  0.19828138  0.09268061    -0.80030
O1938       O  0.63976699  0.24168841  0.08911117    -0.99110
Zr1939     Zr  0.54973934  0.29865777  0.01105668     2.21500
Zr1940     Zr  0.55515586  0.30186918  0.19187078     2.11130
O1941       O  0.55383177  0.25394318  0.14942436    -2.47800
O1942       O  0.54907112  0.25191052  0.05667777    -0.79820
O1943       O  0.51288096  0.30255578  0.15233849    -0.72020
O1944       O  0.59211396  0.30025427  0.05134697    -2.32970
O1945       O  0.51013903  0.29913538  0.06061906    -2.29180
O1946       O  0.59404032  0.30001715  0.14099878    -0.73770
H1947       H  0.55403163  0.36686617  0.16528678     0.78220
H1948       H  0.60768851  0.30098130  0.03023943     0.79310
H1949       H  0.55490737  0.23609311  0.16996209     0.81540
H1950       H  0.99329756  0.29929814  0.04330451     0.79140
H1951       H  0.64691716  0.32103335  0.08920529     0.42180
H1952       H  0.64888685  0.25726874  0.10913784     0.41150
H1953       H  0.57538833  0.19266614  0.12520621     0.40830
H1954       H  0.51324272  0.19189723  0.14054710     0.38760
H1955       H  0.96116143  0.27486122  0.15486006     0.41890
H1956       H  0.95639823  0.33858733  0.07870998     0.36680
H1957       H  0.52949389  0.40429156  0.06940214     0.42790
H1958       H  0.57957854  0.40996149  0.11742297     0.39210
H1959       H  0.98252553  0.19883642  0.12892933     0.44130
H1960       H  0.95957861  0.37328456  0.09559791     0.42850
H1961       H  0.61170145  0.40853092  0.11443515     0.42990
H1962       H  0.64251454  0.22133906  0.10481530     0.43340
O1963       O  0.85139738  0.48046442  0.02510081    -0.75530
O1964       O  0.88090158  0.01970564  0.03499193    -0.54430
C1965       C  0.87261019  0.99500157  0.01252946     0.78200
O1966       O  0.76155904  0.10486254  0.00255395    -0.60130
O1967       O  0.72643480  0.07913033  0.03880657    -0.53160
C1968       C  0.73614964  0.09746497  0.00602346     0.70220
O1969       O  0.85028395  0.10341903  0.01150682    -0.74690
O1970       O  0.88605815  0.08383025  0.05304410    -0.55250
C1971       C  0.87574812  0.09936834  0.01903193     0.76220
O1972       O  0.77202983  0.48877416  0.99374762    -0.59830
O1973       O  0.73561750  0.00880082  0.03603264    -0.52950
C1974       C  0.74673800  0.99244372  0.00129361     0.72810
Zr1975     Zr  0.80858776  0.00521572  0.03707064     2.54710
O1976       O  0.81557327  0.03031885  0.96082788    -0.80400
O1977       O  0.80101812  0.44910044  0.02756207    -0.93810
Zr1978     Zr  0.80487935  0.09637551  0.04121457     2.64680
O1979       O  0.81355852  0.11883830  0.96435920    -0.98770
O1980       O  0.80079383  0.15008222  0.06836512    -0.80830
O1981       O  0.83359290  0.05153864  0.03777487    -0.84190
O1982       O  0.77987791  0.04947607  0.03630309    -2.18900
O1983       O  0.76048862  0.49196056  0.20584883    -0.67580
O1984       O  0.72592106  0.01491937  0.16491208    -0.52140
C1985       C  0.73517376  0.99854529  0.20010890     0.71190
O1986       O  0.84870318  0.10771997  0.20176354    -0.60480
O1987       O  0.88385362  0.08443700  0.16089761    -0.52460
C1988       C  0.87421228  0.10312645  0.19293401     0.73000
O1989       O  0.75952431  0.10589791  0.19900113    -0.71880
O1990       O  0.72509429  0.08405130  0.15610849    -0.50560
C1991       C  0.73433816  0.10151757  0.18981377     0.74380
O1992       O  0.84871813  0.49199461  0.19900055    -0.67210
O1993       O  0.88449820  0.01288736  0.15746606    -0.54410
C1994       C  0.87412699  0.99642697  0.19101717     0.72760
Zr1995     Zr  0.80431332  0.00181760  0.16968735     2.77540
O1996       O  0.81147507  0.99177889  0.25253591    -0.97960
O1997       O  0.80252745  0.44602654  0.15321005    -0.78780
Zr1998     Zr  0.80448263  0.09279136  0.17291745     2.70070
O1999       O  0.80290704  0.09243274  0.25808764    -0.80030
O2000       O  0.80507537  0.14930294  0.16613054    -0.99110
Zr2001     Zr  0.86120905  0.04894614  0.10494623     2.21500
Zr2002     Zr  0.74921436  0.04688836  0.10133664     2.11130
O2003       O  0.77739829  0.04740456  0.17007446    -2.47800
O2004       O  0.83154350  0.04737142  0.17230935    -0.79820
O2005       O  0.77776803  0.00129896  0.10142103    -0.72020
O2006       O  0.83334927  0.09549041  0.10696329    -2.32970
O2007       O  0.83464669  0.00212423  0.10518789    -2.29180
O2008       O  0.77569774  0.09435378  0.10673553    -0.73770
H2009       H  0.77028088  0.04909700  0.00705186     0.78220
H2010       H  0.84455440  0.11403139  0.10787605     0.79310
H2011       H  0.76630232  0.04793779  0.19820550     0.81540
H2012       H  0.84594910  0.48359285  0.10658773     0.79140
H2013       H  0.81990872  0.15730179  0.07169576     0.42180
H2014       H  0.78556919  0.15566666  0.16664506     0.41150
H2015       H  0.81355522  0.07367008  0.26693826     0.40830
H2016       H  0.80728896  0.01183032  0.26841268     0.38760
H2017       H  0.78277412  0.44141475  0.15022656     0.41890
H2018       H  0.78850610  0.44377020  0.05382551     0.36680
H2019       H  0.83552515  0.03345657  0.95631806     0.42790
H2020       H  0.81152340  0.10098864  0.94268915     0.39210
H2021       H  0.79702704  0.47708837  0.26289142     0.44130
H2022       H  0.81829388  0.43840092  0.03575165     0.42850
H2023       H  0.79809845  0.13308682  0.95773486     0.42990
H2024       H  0.81226925  0.15622157  0.19660892     0.43340
C2025       C  0.80420383  0.30581311  0.09711041    -0.02720
C2026       C  0.54809810  0.30241159  0.61235474    -0.02720
O2027       O  0.62141284  0.23675916  0.43714143    -0.75530
O2028       O  0.64505780  0.21021505  0.49208357    -0.54430
C2029       C  0.62598615  0.22997279  0.48024162     0.78200
O2030       O  0.62238424  0.11898656  0.26852195    -0.60130
O2031       O  0.64593539  0.14422023  0.21171924    -0.53160
C2032       C  0.62779199  0.12407921  0.22514530     0.70220
O2033       O  0.61798959  0.11623431  0.41791543    -0.74690
O2034       O  0.64277939  0.13994529  0.47554682    -0.55250
C2035       C  0.62357539  0.12153451  0.46042772     0.76220
O2036       O  0.62172207  0.24254996  0.28530423    -0.59830
O2037       O  0.64282244  0.21508812  0.22593142    -0.52950
C2038       C  0.62554166  0.23523946  0.24251116     0.72810
Zr2039     Zr  0.63718117  0.22357240  0.35766072     2.54710
O2040       O  0.58785859  0.21638359  0.35403856    -0.80400
O2041       O  0.63518958  0.28006493  0.36648655    -0.93810
Zr2042     Zr  0.63720753  0.13304516  0.34674249     2.64680
O2043       O  0.58742872  0.13207306  0.34520898    -0.98770
O2044       O  0.64411214  0.07710005  0.34375363    -0.80830
O2045       O  0.63695490  0.17658498  0.39886573    -0.84190
O2046       O  0.63617217  0.17994522  0.30565058    -2.18900
O2047       O  0.73205298  0.23930706  0.26766989    -0.67580
O2048       O  0.70795142  0.21355892  0.21185460    -0.52140
C2049       C  0.72664585  0.23316740  0.22460917     0.71190
O2050       O  0.73261031  0.11669189  0.42828688    -0.60480
O2051       O  0.70995010  0.14268123  0.48626166    -0.52460
C2052       C  0.72845800  0.12283106  0.47234263     0.73000
O2053       O  0.72312986  0.11249859  0.26731232    -0.71880
O2054       O  0.70078908  0.13988439  0.21051154    -0.50560
C2055       C  0.71687183  0.11794033  0.22417506     0.74380
O2056       O  0.73618957  0.23772061  0.41932986    -0.67210
O2057       O  0.71250227  0.21236017  0.47764635    -0.54410
C2058       C  0.73141811  0.23128827  0.46225498     0.72760
Zr2059     Zr  0.71693189  0.22318312  0.34625872     2.77540
O2060       O  0.76661880  0.22402200  0.34691402    -0.97960
O2061       O  0.71133404  0.27962966  0.34720751    -0.78780
Zr2062     Zr  0.71666025  0.13094053  0.34839170     2.70070
O2063       O  0.76620455  0.13115120  0.33813480    -0.80030
O2064       O  0.71319320  0.07461018  0.35721070    -0.99110
Zr2065     Zr  0.67756589  0.17694379  0.44402447     2.21500
Zr2066     Zr  0.67626453  0.17907413  0.25671289     2.11130
O2067       O  0.71753775  0.17693071  0.30105342    -2.47800
O2068       O  0.71703871  0.17723945  0.39327604    -0.79820
O2069       O  0.67572349  0.22502029  0.30495974    -0.72020
O2070       O  0.67654758  0.13115735  0.39520532    -2.32970
O2071       O  0.67843004  0.22396810  0.39883032    -2.29180
O2072       O  0.67716899  0.13208133  0.30114463    -0.73770
H2073       H  0.61966555  0.18028566  0.28742629     0.78220
H2074       H  0.67616774  0.11244403  0.41406813     0.79310
H2075       H  0.73341984  0.17644650  0.28054926     0.81540
H2076       H  0.67898450  0.24216394  0.41884510     0.79140
H2077       H  0.65535891  0.07393344  0.31505416     0.42180
H2078       H  0.70989040  0.06666004  0.32525880     0.41150
H2079       H  0.77246949  0.14857007  0.35812004     0.40830
H2080       H  0.77227490  0.20512245  0.32926663     0.38760
H2081       H  0.70643025  0.28518572  0.31476303     0.41890
H2082       H  0.64407730  0.28449738  0.39669729     0.36680
H2083       H  0.58442419  0.19644741  0.37058244     0.42790
H2084       H  0.58220975  0.14587412  0.31900246     0.39210
H2085       H  0.77208988  0.24185136  0.32689027     0.44130
H2086       H  0.61557095  0.28487223  0.37212456     0.42850
H2087       H  0.58301027  0.11074656  0.33427287     0.42990
H2088       H  0.73203480  0.06781145  0.36457349     0.43340
O2089       O  0.85877313  0.23534838  0.67375476    -0.75530
O2090       O  0.83856124  0.26378859  0.73292345    -0.54430
C2091       C  0.85528870  0.24300459  0.71660440     0.78200
O2092       O  0.86169537  0.36248980  0.53823767    -0.60130
O2093       O  0.83671861  0.33858532  0.48113961    -0.53160
C2094       C  0.85557210  0.35742208  0.49600697     0.70220
O2095       O  0.86178859  0.36043959  0.68497507    -0.74690
O2096       O  0.83873421  0.33407447  0.74224883    -0.55250
C2097       C  0.85669215  0.35442914  0.72808571     0.76220
O2098       O  0.85897204  0.23925603  0.52152341    -0.59830
O2099       O  0.83547204  0.26709201  0.46717698    -0.52950
C2100       C  0.85432565  0.24694322  0.47875639     0.72810
Zr2101     Zr  0.84215957  0.25247280  0.60035774     2.54710
O2102       O  0.89165385  0.24650440  0.60335525    -0.80400
O2103       O  0.83394801  0.19744132  0.58862123    -0.93810
Zr2104     Zr  0.84622216  0.34273114  0.60968879     2.64680
O2105       O  0.89528943  0.33213685  0.61030725    -0.98770
O2106       O  0.85006535  0.39912408  0.61190135    -0.80830
O2107       O  0.84542880  0.29617281  0.65190693    -0.84190
O2108       O  0.84442316  0.29916882  0.55820404    -2.18900
O2109       O  0.74376462  0.24164301  0.53895931    -0.67580
O2110       O  0.76826594  0.26582493  0.48045893    -0.52140
C2111       C  0.74907351  0.24728198  0.49593616     0.71190
O2112       O  0.75660931  0.36476817  0.69162110    -0.60480
O2113       O  0.78037890  0.33847632  0.74792711    -0.52460
C2114       C  0.76317946  0.35950425  0.73470760     0.73000
O2115       O  0.74887913  0.36231124  0.53051498    -0.71880
O2116       O  0.77288748  0.33823750  0.47210483    -0.50560
C2117       C  0.75411814  0.35772790  0.48627884     0.74380
O2118       O  0.74917242  0.23930264  0.69000535    -0.67210
O2119       O  0.77438450  0.26421293  0.74523138    -0.54410
C2120       C  0.75564646  0.24446514  0.73280937     0.72760
Zr2121     Zr  0.76235703  0.25747002  0.61215053     2.77540
O2122       O  0.71347621  0.26716748  0.62117633    -0.97960
O2123       O  0.75965707  0.20071038  0.60955117    -0.78780
Zr2124     Zr  0.76622975  0.34889276  0.61002925     2.70070
O2125       O  0.71699743  0.35719970  0.61637476    -0.80030
O2126       O  0.77778670  0.40365972  0.60632953    -0.99110
Zr2127     Zr  0.80565217  0.29980806  0.70110639     2.21500
Zr2128     Zr  0.80318574  0.30123114  0.51412904     2.11130
O2129       O  0.76351194  0.30295436  0.56466724    -2.47800
O2130       O  0.76412515  0.30336499  0.65783888    -0.79820
O2131       O  0.80073805  0.25451824  0.55957391    -0.72020
O2132       O  0.80638016  0.34635715  0.65566899    -2.32970
O2133       O  0.80374018  0.25373224  0.65303226    -2.29180
O2134       O  0.80622124  0.34663305  0.56294828    -0.73770
H2135       H  0.86048035  0.29892997  0.53813161     0.78220
H2136       H  0.80771213  0.36470344  0.67520401     0.79310
H2137       H  0.74699870  0.30375146  0.54649373     0.81540
H2138       H  0.80354633  0.23507129  0.67200557     0.79140
H2139       H  0.83243492  0.40586601  0.62605004     0.42180
H2140       H  0.78479106  0.40664955  0.57399600     0.41150
H2141       H  0.70994982  0.33780469  0.63096364     0.40830
H2142       H  0.70743746  0.27469282  0.59023185     0.38760
H2143       H  0.76917442  0.19467824  0.58008041     0.41890
H2144       H  0.81809187  0.19395651  0.60969039     0.36680
H2145       H  0.89832697  0.26686731  0.61497181     0.42790
H2146       H  0.89987025  0.32428557  0.57854172     0.39210
H2147       H  0.70552341  0.24601751  0.62422492     0.44130
H2148       H  0.84954039  0.18684890  0.60376766     0.42850
H2149       H  0.90388507  0.35303637  0.61167433     0.42990
H2150       H  0.75981847  0.41421150  0.60699258     0.43340
C2151       C  0.80243655  0.05069080  0.60880341    -0.02720
C2152       C  0.55213898  0.05002610  0.10078836    -0.02720
C2153       C  0.57165849  0.07121047  0.18151381    -0.02080
C2154       C  0.57215938  0.07187958  0.13136364     0.07600
C2155       C  0.59106329  0.09483720  0.11209823    -0.02200
C2156       C  0.60853305  0.11280388  0.14202279    -0.02200
C2157       C  0.61100387  0.10536008  0.19026948     0.07730
C2158       C  0.59421729  0.08088337  0.20701988    -0.02390
Br2159     Br  0.60056551  0.05827709  0.26444777    -0.00940
Br2160     Br  0.53860426  0.07157585  0.21999432    -0.01010
Br2161     Br  0.62820095  0.14801445  0.11637011    -0.00970
Br2162     Br  0.59211598  0.10561415  0.04605126    -0.00960
C2163       C  0.76949503  0.08792382  0.49386695    -0.02080
C2164       C  0.74617695  0.10521411  0.50860612     0.07600
C2165       C  0.73964529  0.10312753  0.55743746    -0.02200
C2166       C  0.75650100  0.08561444  0.58948335    -0.02200
C2167       C  0.78045104  0.06817212  0.57403257     0.07730
C2168       C  0.78195097  0.06577023  0.52342410    -0.02390
Br2169     Br  0.78946886  0.02746582  0.48871755    -0.00940
Br2170     Br  0.78672614  0.09377358  0.43307463    -0.01010
Br2171     Br  0.74525230  0.08680109  0.65439487    -0.00970
Br2172     Br  0.70812157  0.12533517  0.58243883    -0.00960
C2173       C  0.56882649  0.28348884  0.52844292    -0.02080
C2174       C  0.57119541  0.28522081  0.57857633     0.07600
C2175       C  0.59642927  0.27071045  0.59481481    -0.02200
C2176       C  0.61473539  0.25374501  0.56349273    -0.02200
C2177       C  0.60744011  0.24700905  0.51656602     0.07730
C2178       C  0.58221604  0.25995802  0.50221441    -0.02390
Br2179     Br  0.56335378  0.24528677  0.44750941    -0.00940
Br2180     Br  0.55920743  0.31825761  0.48827945    -0.01010
Br2181     Br  0.64944006  0.23878630  0.58595173    -0.00970
Br2182     Br  0.60653574  0.27024028  0.65995735    -0.00960
C2183       C  0.79132545  0.26094047  0.15931394    -0.02080
C2184       C  0.78197060  0.28477844  0.12674731     0.07600
C2185       C  0.75214736  0.28670598  0.12368742    -0.02200
C2186       C  0.73455477  0.27099062  0.15647393    -0.02200
C2187       C  0.74470285  0.24899995  0.18826311     0.07730
C2188       C  0.77298485  0.24346334  0.18813226    -0.02390
Br2189     Br  0.78670759  0.21193765  0.23054662    -0.00940
Br2190     Br  0.82930337  0.25167755  0.17118377    -0.01010
Br2191     Br  0.69590558  0.28075546  0.16030983    -0.00970
Br2192     Br  0.73195864  0.30450615  0.07215058    -0.00960
C2193       C  0.91214541  0.12206949  0.30208327    -0.02080
C2194       C  0.91297750  0.15560953  0.30349155     0.07600
C2195       C  0.89961800  0.17088089  0.26485413    -0.02200
C2196       C  0.88973990  0.15368546  0.22613680    -0.02200
C2197       C  0.89262374  0.12109954  0.22393925     0.07730
C2198       C  0.90533268  0.10576026  0.26079314    -0.02390
Br2199     Br  0.91305095  0.06179336  0.25408306    -0.00940
Br2200     Br  0.91249966  0.09665416  0.35728521    -0.01010
Br2201     Br  0.87333926  0.17470409  0.17334274    -0.00970
Br2202     Br  0.89199303  0.21483246  0.26315824    -0.00960
C2203       C  0.96931481  0.18402212  0.28174288    -0.02080
C2204       C  0.94974284  0.19753076  0.31386901     0.07600
C2205       C  0.95133126  0.23146309  0.31595959    -0.02200
C2206       C  0.97390578  0.24742928  0.29485057    -0.02200
C2207       C  0.99517376  0.23111950  0.27224523     0.07730
C2208       C  0.99433341  0.19864492  0.27231019    -0.02390
Br2209     Br  0.52421752  0.17501566  0.24476679    -0.00940
Br2210     Br  0.95759763  0.16483366  0.22387481    -0.01010
Br2211     Br  0.97570349  0.29227688  0.29264699    -0.00970
Br2212     Br  0.92218927  0.25928774  0.33685003    -0.00960
C2213       C  0.96053059  0.13893098  0.45749818    -0.02080
C2214       C  0.98582781  0.12507732  0.44298227     0.07600
C2215       C  0.99099058  0.12370598  0.39433559    -0.02200
C2216       C  0.97159861  0.13513797  0.36146653    -0.02200
C2217       C  0.94715505  0.15216242  0.37603177     0.07730
C2218       C  0.94047926  0.14767579  0.42479949    -0.02390
Br2219     Br  0.90299429  0.14453617  0.44877598    -0.00940
Br2220     Br  0.95188488  0.14924944  0.52218260    -0.01010
Br2221     Br  0.97539723  0.11437664  0.30165597    -0.00970
Br2222     Br  0.52566610  0.10732761  0.37145568    -0.00960
C2223       C  0.86151940  0.21339182  0.40488992    -0.02080
C2224       C  0.87261203  0.23103203  0.44160122     0.07600
C2225       C  0.90135117  0.22950717  0.44704188    -0.02200
C2226       C  0.91885594  0.21334740  0.41456098    -0.02200
C2227       C  0.90809347  0.19487779  0.37639390     0.07730
C2228       C  0.87825928  0.19361071  0.37562952    -0.02390
Br2229     Br  0.85762664  0.16023006  0.34669265    -0.00940
Br2230     Br  0.82213685  0.21311561  0.39935234    -0.01010
Br2231     Br  0.95811872  0.21812578  0.42413037    -0.00970
Br2232     Br  0.91718421  0.24929320  0.50085525    -0.00960
C2233       C  0.63371532  0.41749020  0.29385178    -0.02080
C2234       C  0.65490595  0.40320523  0.32244281     0.07600
C2235       C  0.65646657  0.36937487  0.31903902    -0.02200
C2236       C  0.64183888  0.35293051  0.28391601    -0.02200
C2237       C  0.62303704  0.36819305  0.25514863     0.07730
C2238       C  0.61883586  0.40010098  0.26077813    -0.02390
Br2239     Br  0.59483301  0.42037160  0.21691114    -0.00940
Br2240     Br  0.62518031  0.46167439  0.29212971    -0.01010
Br2241     Br  0.65045334  0.30998796  0.26938249    -0.00970
Br2242     Br  0.67467713  0.34217706  0.36269851    -0.00960
C2243       C  0.72571446  0.48605922  0.28555827    -0.02080
C2244       C  0.71698391  0.48517344  0.23835565     0.07600
C2245       C  0.69632135  0.46423799  0.22732656    -0.02200
C2246       C  0.68807368  0.44120577  0.26008348    -0.02200
C2247       C  0.69248037  0.44468778  0.31050535     0.07730
C2248       C  0.71410004  0.46629968  0.32093106    -0.02390
Br2249     Br  0.72767922  0.47231873  0.38351936    -0.00940
Br2250     Br  0.75201849  0.51754114  0.30288461    -0.01010
Br2251     Br  0.68301974  0.40182665  0.22728032    -0.00970
Br2252     Br  0.68200960  0.46407981  0.16437533    -0.00960
C2253       C  0.61341519  0.44767365  0.43801570    -0.02080
C2254       C  0.61666393  0.47953500  0.44661909     0.07600
C2255       C  0.63703824  0.99560654  0.42151785    -0.02200
C2256       C  0.65327007  0.48043425  0.38632301    -0.02200
C2257       C  0.65393898  0.44645969  0.38226680     0.07730
C2258       C  0.63274392  0.43092534  0.41003278    -0.02390
Br2259     Br  0.63118014  0.38652038  0.41992165    -0.00940
Br2260     Br  0.58246484  0.42681246  0.46715595    -0.01010
Br2261     Br  0.66914446  0.00980094  0.34287886    -0.00970
Br2262     Br  0.64422498  0.03846866  0.43906062    -0.00960
C2263       C  0.72150951  0.40265457  0.46501439    -0.02080
C2264       C  0.73691104  0.37642398  0.45034585     0.07600
C2265       C  0.73612371  0.37015341  0.40156502    -0.02200
C2266       C  0.71950018  0.38853705  0.37045844    -0.02200
C2267       C  0.69756478  0.40890708  0.38696807     0.07730
C2268       C  0.70027158  0.41597336  0.43713113    -0.02390
Br2269     Br  0.67987561  0.44664340  0.47391238    -0.00940
Br2270     Br  0.73412255  0.42548949  0.51960807    -0.01010
Br2271     Br  0.72838267  0.38380914  0.30516471    -0.00970
Br2272     Br  0.75824431  0.33655380  0.37549524    -0.00960
C2273       C  0.65311356  0.12052720  0.82619563    -0.02080
C2274       C  0.65873018  0.15369359  0.82236668     0.07600
C2275       C  0.64561005  0.16890471  0.78314874    -0.02200
C2276       C  0.62634149  0.15315500  0.75487061    -0.02200
C2277       C  0.61957195  0.12170115  0.76276491     0.07730
C2278       C  0.63256055  0.10577325  0.79911388    -0.02390
Br2279     Br  0.62192029  0.06296680  0.81158960    -0.00940
Br2280     Br  0.67523261  0.09136591  0.85993638    -0.01010
Br2281     Br  0.60549760  0.17625392  0.70877976    -0.00970
Br2282     Br  0.65023736  0.21230749  0.76703452    -0.00960
C2283       C  0.65008480  0.23565084  0.95095007    -0.02080
C2284       C  0.62226325  0.23870805  0.94014550     0.07600
C2285       C  0.61204806  0.22331282  0.90129268    -0.02200
C2286       C  0.62721388  0.19900367  0.88041636    -0.02200
C2287       C  0.65656079  0.19598717  0.88819850     0.07730
C2288       C  0.66711254  0.21444423  0.92626959    -0.02390
Br2289     Br  0.70525907  0.21479527  0.94408688    -0.00940
Br2290     Br  0.66562707  0.26500416  0.99495987    -0.01010
Br2291     Br  0.60225056  0.16644153  0.85986655    -0.00970
Br2292     Br  0.57611629  0.23399566  0.87831653    -0.00960
C2293       C  0.67731827  0.13937558  0.93954851    -0.02080
C2294       C  0.69163878  0.15230447  0.89860279     0.07600
C2295       C  0.72044789  0.14463482  0.89764914    -0.02200
C2296       C  0.73069861  0.12003215  0.92501025    -0.02200
C2297       C  0.71843752  0.11211016  0.96826533     0.07730
C2298       C  0.69143556  0.12260293  0.97548297    -0.02390
Br2299     Br  0.67360973  0.11332856  0.03440846    -0.00940
Br2300     Br  0.63826355  0.14079412  0.94885183    -0.01010
Br2301     Br  0.76026032  0.09528196  0.89908514    -0.00970
Br2302     Br  0.75015896  0.17155501  0.87759697    -0.00960
C2303       C  0.73454470  0.19426790  0.76375118    -0.02080
C2304       C  0.73914798  0.22656942  0.76912409     0.07600
C2305       C  0.72400565  0.24244256  0.80374398    -0.02200
C2306       C  0.70212717  0.22754103  0.82847044    -0.02200
C2307       C  0.69846931  0.19354976  0.82750084     0.07730
C2308       C  0.71526604  0.17788472  0.79240227    -0.02390
Br2309     Br  0.71459079  0.13311255  0.78280234    -0.00940
Br2310     Br  0.75682610  0.17162531  0.71846622    -0.01010
Br2311     Br  0.67493431  0.25828566  0.84845406    -0.00970
Br2312     Br  0.73181785  0.28639008  0.81402534    -0.00960
C2313       C  0.59723751  0.36366772  0.67321661    -0.02080
C2314       C  0.58962085  0.36215123  0.72095375     0.07600
C2315       C  0.57013414  0.34022597  0.73483779    -0.02200
C2316       C  0.55963130  0.31838878  0.70235415    -0.02200
C2317       C  0.56387969  0.32206069  0.65191027     0.07730
C2318       C  0.58500807  0.34403149  0.63923000    -0.02390
Br2319     Br  0.59679590  0.35078611  0.57518280    -0.00940
Br2320     Br  0.62339134  0.39517487  0.65384157    -0.01010
Br2321     Br  0.54840321  0.28028845  0.73399997    -0.00970
Br2322     Br  0.56074632  0.33775222  0.80095265    -0.00960
C2323       C  0.56794148  0.48792042  0.00017835    -0.02080
C2324       C  0.59059131  0.50158747  0.97684755     0.07600
C2325       C  0.60407126  0.02597456  0.00191211    -0.02200
C2326       C  0.59604813  0.03421618  0.04812753    -0.02200
C2327       C  0.56971875  0.02664537  0.06617153     0.07730
C2328       C  0.55966190  0.99823808  0.04570707    -0.02390
Br2329     Br  0.54250231  0.96612135  0.08270808    -0.00940
Br2330     Br  0.54677716  0.45539026  0.97053680    -0.01010
Br2331     Br  0.62657357  0.03776707  0.09040729    -0.00970
Br2332     Br  0.63415813  0.04997544  0.97651236    -0.00960
C2333       C  0.76104709  0.37247483  0.03274022    -0.02080
C2334       C  0.76284804  0.36421722  0.98521946     0.07600
C2335       C  0.77983136  0.33926583  0.97229080    -0.02200
C2336       C  0.79588217  0.32332961  0.00589967    -0.02200
C2337       C  0.79094175  0.32732243  0.05621824     0.07730
C2338       C  0.77447327  0.35459914  0.06771783    -0.02390
Br2339     Br  0.76684920  0.36796228  0.13100775    -0.00940
Br2340     Br  0.73801155  0.40781406  0.04984318    -0.01010
Br2341     Br  0.82827152  0.30504121  0.97639517    -0.00970
Br2342     Br  0.78048370  0.32655085  0.90711265    -0.00960
C2343       C  0.78273746  0.01122043  0.73210679    -0.02080
C2344       C  0.76251810  0.48967919  0.72095107     0.07600
C2345       C  0.75342939  0.48900661  0.67395441    -0.02200
C2346       C  0.76400155  0.00974855  0.63907290    -0.02200
C2347       C  0.78580240  0.03110065  0.64914486     0.07730
C2348       C  0.79059013  0.03443173  0.69935376    -0.02390
Br2349     Br  0.79544646  0.07404284  0.73145558    -0.00940
Br2350     Br  0.79695167  0.51198737  0.79510015    -0.01010
Br2351     Br  0.74776860  0.00663201  0.57811683    -0.00970
Br2352     Br  0.72762312  0.45701374  0.65623727    -0.00960
C2353       C  0.83846341  0.12120481  0.67781776    -0.02080
C2354       C  0.85902542  0.10516071  0.70186401     0.07600
C2355       C  0.86357788  0.07386777  0.69145502    -0.02200
C2356       C  0.84578071  0.05711421  0.66232552    -0.02200
C2357       C  0.82356884  0.07221921  0.63739119     0.07730
C2358       C  0.82204736  0.10583617  0.64376567    -0.02390
Br2359     Br  0.79911814  0.13342400  0.60849380    -0.00940
Br2360     Br  0.83101523  0.16371178  0.69681848    -0.01010
Br2361     Br  0.85194474  0.01254230  0.66530022    -0.00970
Br2362     Br  0.89456021  0.05364134  0.71927625    -0.00960
C2363       C  0.99603366  0.07773370  0.01008301    -0.02080
C2364       C  0.00012509  0.10986354  0.00899590     0.07600
C2365       C  0.01888549  0.12341269  0.03876024    -0.02200
C2366       C  0.53127740  0.10520599  0.07350665    -0.02200
C2367       C  0.53267759  0.07140148  0.06928061     0.07730
C2368       C  0.51297768  0.05832884  0.03718401    -0.02390
Br2369     Br  0.50176848  0.01553195  0.03482804    -0.00940
Br2370     Br  0.96496398  0.06129431  0.97602854    -0.01010
Br2371     Br  0.53621137  0.12872005  0.13080011    -0.00970
Br2372     Br  0.02796887  0.16689903  0.03108542    -0.00960
C2373       C  0.87151477  0.26185442  0.04936070    -0.02080
C2374       C  0.86010080  0.23819185  0.02242333     0.07600
C2375       C  0.83174708  0.23353010  0.02380748    -0.02200
C2376       C  0.81424621  0.25481205  0.04758298    -0.02200
C2377       C  0.82499704  0.28063811  0.07449206     0.07730
C2378       C  0.85482020  0.28078959  0.07868467    -0.02390
Br2379     Br  0.87638468  0.29932847  0.12792918    -0.00940
Br2380     Br  0.91053572  0.26985957  0.04268609    -0.01010
Br2381     Br  0.77586996  0.24912829  0.03463823    -0.00970
Br2382     Br  0.81683959  0.19933054  0.98758928    -0.00960
C2383       C  0.51296006  0.22841937  0.67401174    -0.02080
C2384       C  0.98817268  0.24116562  0.69033787     0.07600
C2385       C  0.98165238  0.27176024  0.67867402    -0.02200
C2386       C  0.00181769  0.29143033  0.65904830    -0.02200
C2387       C  0.52694804  0.27908381  0.63808821     0.07730
C2388       C  0.53025633  0.24552460  0.64300083    -0.02390
Br2389     Br  0.55611764  0.21973251  0.60953254    -0.00940
Br2390     Br  0.52498771  0.18919917  0.70030130    -0.01010
Br2391     Br  0.99450302  0.33494365  0.67116114    -0.00970
Br2392     Br  0.94536184  0.28726851  0.69486572    -0.00960
C2393       C  0.81762748  0.32745292  0.18160262    -0.02080
C2394       C  0.81990166  0.32943500  0.13153228     0.07600
C2395       C  0.83829364  0.35390805  0.11528793    -0.02200
C2396       C  0.85490969  0.37113235  0.14714755    -0.02200
C2397       C  0.85722131  0.36147345  0.19421108     0.07730
C2398       C  0.83899672  0.33785171  0.20979645    -0.02390
Br2399     Br  0.84361317  0.31542686  0.26789871    -0.00940
Br2400     Br  0.78404643  0.32074219  0.21759951    -0.01010
Br2401     Br  0.87519698  0.40721910  0.12536908    -0.00970
Br2402     Br  0.84483566  0.36344721  0.05022924    -0.00960
C2403       C  0.54587888  0.00750096  0.16687256    -0.02080
C2404       C  0.53367768  0.02976423  0.13561243     0.07600
C2405       C  0.00430768  0.03332385  0.14087150    -0.02200
C2406       C  0.98855360  0.01000614  0.16286003    -0.02200
C2407       C  0.00080220  0.48953529  0.19433705     0.07730
C2408       C  0.52945835  0.49024683  0.19869581    -0.02390
Br2409     Br  0.54612124  0.46924410  0.25058122    -0.00940
Br2410     Br  0.58483659  0.99918283  0.16781825    -0.01010
Br2411     Br  0.94939444  0.00945568  0.15503344    -0.00970
Br2412     Br  0.98429198  0.07238430  0.13502130    -0.00960
C2413       C  0.01047901  0.37366460  0.54602848    -0.02080
C2414       C  0.99149518  0.35797669  0.51871329     0.07600
C2415       C  0.99040768  0.32537130  0.52143998    -0.02200
C2416       C  0.00852967  0.30816782  0.55007194    -0.02200
C2417       C  0.52802193  0.32357977  0.58042317     0.07730
C2418       C  0.52623778  0.35768583  0.57997967    -0.02390
Br2419     Br  0.53781868  0.38613682  0.62862814    -0.00940
Br2420     Br  0.01621365  0.41746268  0.53322135    -0.01010
Br2421     Br  0.00643318  0.26308675  0.54192980    -0.00970
Br2422     Br  0.96485376  0.30420811  0.48174824    -0.00960
C2423       C  0.82483459  0.99717915  0.57034984    -0.02080
C2424       C  0.82319402  0.03102747  0.57487262     0.07600
C2425       C  0.84219868  0.04792344  0.54439181    -0.02200
C2426       C  0.86055052  0.03241549  0.51304956    -0.02200
C2427       C  0.85985034  0.49999407  0.50754719     0.07730
C2428       C  0.84150068  0.48273881  0.53518388    -0.02390
Br2429     Br  0.83770856  0.43870868  0.52094168    -0.00940
Br2430     Br  0.80850461  0.46711727  0.61211094    -0.01010
Br2431     Br  0.88694526  0.05563695  0.47574390    -0.00970
Br2432     Br  0.84317580  0.09297740  0.53929051    -0.00960
C2433       C  0.88447002  0.44765177  0.89932473    -0.02080
C2434       C  0.91388062  0.44766666  0.89356510     0.07600
C2435       C  0.92836848  0.46792414  0.92594560    -0.02200
C2436       C  0.91515834  0.48123646  0.96565026    -0.02200
C2437       C  0.88676755  0.48162887  0.96973933     0.07730
C2438       C  0.87148831  0.46598733  0.93466312    -0.02390
Br2439     Br  0.83172303  0.46777885  0.93467143    -0.00940
Br2440     Br  0.85917026  0.42260698  0.86349169    -0.01010
Br2441     Br  0.93591993  0.99241086  0.02010291    -0.00970
Br2442     Br  0.96693873  0.47741916  0.92197587    -0.00960
C2443       C  0.97965000  0.44163851  0.81899609    -0.02080
C2444       C  0.95108230  0.44850150  0.82920955     0.07600
C2445       C  0.94214124  0.47901656  0.81316434    -0.02200
C2446       C  0.96016118  0.99850053  0.78731056    -0.02200
C2447       C  0.98441908  0.98646178  0.76830138     0.07730
C2448       C  0.49331232  0.45699692  0.78219393    -0.02390
Br2449     Br  0.52615008  0.43908952  0.75451654    -0.00940
Br2450     Br  0.00628645  0.42665636  0.86347773    -0.01010
Br2451     Br  0.95194268  0.04164484  0.77550390    -0.00970
Br2452     Br  0.90486190  0.99451788  0.81808819    -0.00960
C2453       C  0.90272676  0.37368709  0.83141769    -0.02080
C2454       C  0.91223371  0.40545939  0.82183385     0.07600
C2455       C  0.90263505  0.41742935  0.77774486    -0.02200
C2456       C  0.87987104  0.40381479  0.75564380    -0.02200
C2457       C  0.87376197  0.37206691  0.76251726     0.07730
C2458       C  0.88805841  0.35657490  0.79750002    -0.02390
Br2459     Br  0.89108040  0.31178365  0.79431771    -0.00940
Br2460     Br  0.90412747  0.35168236  0.89025944    -0.01010
Br2461     Br  0.85784762  0.42925489  0.71518902    -0.00970
Br2462     Br  0.92522655  0.43869686  0.73217657    -0.00960
C2463       C  0.96422188  0.37701128  0.86833754    -0.02080
C2464       C  0.94734026  0.40161416  0.88780717     0.07600
C2465       C  0.94652839  0.40300892  0.93763469    -0.02200
C2466       C  0.96895769  0.39356974  0.96236752    -0.02200
C2467       C  0.98478937  0.36834354  0.94557712     0.07730
C2468       C  0.98129816  0.35901631  0.89820448    -0.02390
Br2469     Br  0.50065424  0.32345573  0.87247712    -0.00940
Br2470     Br  0.96632538  0.36841136  0.80159290    -0.01010
Br2471     Br  0.97656172  0.41777380  0.01785437    -0.00970
Br2472     Br  0.91346308  0.40332003  0.97627388    -0.00960
C2473       C  0.93074360  0.92569526  0.85745147    -0.02720
O2474       O  0.98625729  0.98753053  0.42119069    -0.75450
O2475       O  0.96078151  0.96375157  0.47869422    -0.54430
C2476       C  0.98015112  0.98206708  0.46359251     0.78200
O2477       O  0.88340935  0.98818136  0.26839420    -0.60130
O2478       O  0.90809493  0.96062556  0.21333407    -0.53160
C2479       C  0.89073530  0.98165115  0.22596578     0.70220
O2480       O  0.87342456  0.99029468  0.42806721    -0.74690
O2481       O  0.89547132  0.96395611  0.48622083    -0.55250
C2482       C  0.87762362  0.98391766  0.47164837     0.76220
O2483       O  0.98753233  0.98129204  0.27237574    -0.59830
O2484       O  0.96552966  0.95313247  0.21668720    -0.52950
C2485       C  0.98355369  0.97322180  0.22978777     0.72810
Zr2486     Zr  0.97082790  0.96817596  0.34979853     2.54710
O2487       O  0.97246374  0.52495866  0.34429515    -0.80400
O2488       O  0.52019289  0.95990550  0.35191103    -0.93810
Zr2489     Zr  0.89063402  0.97416143  0.34982060     2.64680
O2490       O  0.89154128  0.52999070  0.35583178    -0.98770
O2491       O  0.84102433  0.97452417  0.34250080    -0.80830
O2492       O  0.93022842  0.97330001  0.39623553    -0.84190
O2493       O  0.93165467  0.97091574  0.30416734    -2.18900
O2494       O  0.98928283  0.86420070  0.29296374    -0.67580
O2495       O  0.96582441  0.88664334  0.23298761    -0.52140
C2496       C  0.98500203  0.86942807  0.24997017     0.71190
O2497       O  0.86635308  0.86895782  0.42029961    -0.60480
O2498       O  0.89161706  0.89230184  0.47758493    -0.52460
C2499       C  0.87224197  0.87418223  0.46260963     0.73000
O2500       O  0.86830221  0.87503834  0.27166371    -0.71880
O2501       O  0.89868100  0.89056508  0.21608739    -0.50560
C2502       C  0.87617290  0.87682670  0.22892092     0.74380
O2503       O  0.98263383  0.86803223  0.43959244    -0.67210
O2504       O  0.95606130  0.89400337  0.49317745    -0.54410
C2505       C  0.97561831  0.87471765  0.48183926     0.72760
Zr2506     Zr  0.96474295  0.87690512  0.36202469     2.77540
O2507       O  0.94280271  0.82735119  0.37710556    -0.97960
O2508       O  0.50880275  0.85020373  0.36553986    -0.78780
Zr2509     Zr  0.88598493  0.88381659  0.34885728     2.70070
O2510       O  0.88475498  0.82697988  0.34610483    -0.80030
O2511       O  0.83631327  0.88965663  0.35228803    -0.99110
Zr2512     Zr  0.92652399  0.92816501  0.44499143     2.21500
Zr2513     Zr  0.93144652  0.92296080  0.26100584     2.11130
O2514       O  0.92779240  0.87707790  0.30793244    -2.47800
O2515       O  0.92309312  0.88072593  0.40225518    -0.79820
O2516       O  0.97010182  0.92029323  0.31059735    -0.72020
O2517       O  0.88718057  0.92936641  0.39602856    -2.32970
O2518       O  0.96819332  0.92470434  0.40125693    -2.29180
O2519       O  0.88910853  0.92863959  0.30267379    -0.73770
H2520       H  0.93354197  0.98885417  0.28394193     0.78220
H2521       H  0.87052064  0.93058595  0.41451702     0.79310
H2522       H  0.92758095  0.85851273  0.28865874     0.81540
H2523       H  0.98401477  0.92457350  0.42112998     0.79140
H2524       H  0.83419830  0.96182575  0.36909621     0.42180
H2525       H  0.83187951  0.90468762  0.32717655     0.41150
H2526       H  0.88558160  0.81994989  0.37904263     0.40830
H2527       H  0.93546277  0.82158473  0.34638289     0.38760
H2528       H  0.52232209  0.86706851  0.37042968     0.41890
H2529       H  0.52352368  0.94743907  0.38043360     0.36680
H2530       H  0.95960466  0.53256493  0.36888521     0.42790
H2531       H  0.91024760  0.53396882  0.34380094     0.39210
H2532       H  0.95808173  0.81261765  0.38238059     0.44130
H2533       H  0.52795007  0.98072570  0.35887848     0.42850
H2534       H  0.87908741  0.53729047  0.33105956     0.42990
H2535       H  0.82902560  0.86942332  0.34123968     0.43340
O2536       O  0.98186911  0.73977843  0.92218175    -0.75530
O2537       O  0.96151436  0.71218010  0.98158292    -0.54430
C2538       C  0.97885867  0.73188704  0.96486447     0.78200
O2539       O  0.86703140  0.73308505  0.79246382    -0.60130
O2540       O  0.89009564  0.70739659  0.73363968    -0.53160
C2541       C  0.87185834  0.72662915  0.74956963     0.70220
O2542       O  0.86879336  0.72753321  0.94385214    -0.74690
O2543       O  0.89766984  0.70577357  0.99668058    -0.55250
C2544       C  0.87671912  0.72253119  0.98567039     0.76220
O2545       O  0.97792854  0.73460825  0.77005124    -0.59830
O2546       O  0.95335926  0.70616763  0.71788684    -0.52950
C2547       C  0.97214386  0.72595668  0.72825748     0.72810
Zr2548     Zr  0.96252343  0.72500655  0.85010872     2.54710
O2549       O  0.94975499  0.77995395  0.84707895    -0.80400
O2550       O  0.51095729  0.73576748  0.83830069    -0.93810
Zr2551     Zr  0.88306501  0.71483818  0.86530400     2.64680
O2552       O  0.87405512  0.76904008  0.88585068    -0.98770
O2553       O  0.83409170  0.70474170  0.86227875    -0.80830
O2554       O  0.92493654  0.72179522  0.90379111    -0.84190
O2555       O  0.92071887  0.72132420  0.81192691    -2.18900
O2556       O  0.98640883  0.62092644  0.78415026    -0.67580
O2557       O  0.95883910  0.64237530  0.72866650    -0.52140
C2558       C  0.97952096  0.62619579  0.74248554     0.71190
O2559       O  0.88517936  0.60761929  0.94163945    -0.60480
O2560       O  0.90894782  0.63563938  0.99599236    -0.52460
C2561       C  0.89240298  0.61406090  0.98371586     0.73000
O2562       O  0.87224158  0.61211819  0.78174672    -0.71880
O2563       O  0.89354880  0.64088279  0.72479427    -0.50560
C2564       C  0.87584923  0.62063310  0.73857570     0.74380
O2565       O  0.98945857  0.62185129  0.93253585    -0.67210
O2566       O  0.96522356  0.64654766  0.99038512    -0.54410
C2567       C  0.98439219  0.62822363  0.97546320     0.72760
Zr2568     Zr  0.97020219  0.63355649  0.85781745     2.77540
O2569       O  0.97445862  0.57697571  0.85848032    -0.97960
O2570       O  0.51971720  0.63997264  0.85443562    -0.78780
Zr2571     Zr  0.89060207  0.62353411  0.86069917     2.70070
O2572       O  0.89561832  0.56709603  0.85495424    -0.80030
O2573       O  0.84126805  0.61845486  0.87053915    -0.99110
Zr2574     Zr  0.93007073  0.67539627  0.94875659     2.21500
Zr2575     Zr  0.92430967  0.67391645  0.76820638     2.11130
O2576       O  0.92989819  0.62713439  0.81275217    -2.47800
O2577       O  0.93132421  0.62790169  0.90519187    -0.79820
O2578       O  0.96589815  0.67792881  0.80900187    -0.72020
O2579       O  0.88768283  0.66884553  0.90902067    -2.32970
O2580       O  0.96893710  0.68044743  0.89857717    -2.29180
O2581       O  0.88492057  0.66963657  0.81757858    -0.73770
H2582       H  0.91879324  0.73948625  0.79221378     0.78220
H2583       H  0.87254825  0.66684242  0.93090154     0.79310
H2584       H  0.93120173  0.60895473  0.79277292     0.81540
H2585       H  0.98594389  0.68172571  0.91528149     0.79140
H2586       H  0.83128884  0.68594395  0.88184995     0.42180
H2587       H  0.83337460  0.63169906  0.84571026     0.41150
H2588       H  0.90631540  0.56109733  0.88274414     0.40830
H2589       H  0.95817273  0.56960371  0.87613099     0.38760
H2590       H  0.52259389  0.65984388  0.83739699     0.41890
H2591       H  0.52007569  0.71925845  0.85668118     0.36680
H2592       H  0.94437361  0.78531486  0.87964342     0.42790
H2593       H  0.89166525  0.77982481  0.88033998     0.39210
H2594       H  0.99023523  0.57224452  0.87869631     0.44130
H2595       H  0.51458959  0.75542041  0.85536102     0.42850
H2596       H  0.86137614  0.77690314  0.86184551     0.42990
H2597       H  0.83727747  0.59678154  0.86061818     0.43340
O2598       O  0.70471999  0.97808593  0.97432041    -0.75530
O2599       O  0.74165046  0.96447527  0.92804525    -0.54430
C2600       C  0.73012029  0.97710228  0.96569525     0.78200
O2601       O  0.62977029  0.86877745  0.94555191    -0.60130
O2602       O  0.59425529  0.89086921  0.90577759    -0.53160
C2603       C  0.60445005  0.87327942  0.93802241     0.70220
O2604       O  0.71843847  0.87244116  0.95735223    -0.74690
O2605       O  0.75319342  0.89667947  0.91725047    -0.55250
C2606       C  0.74385444  0.87887368  0.95065130     0.76220
O2607       O  0.62541789  0.99940116  0.91696254    -0.59830
O2608       O  0.59529384  0.96087584  0.91444187    -0.52950
C2609       C  0.60379702  0.98675314  0.93301852     0.72810
Zr2610     Zr  0.66968695  0.97478865  0.92048117     2.54710
O2611       O  0.65336563  0.97701165  0.00140607    -0.80400
O2612       O  0.68442087  0.52889812  0.91843905    -0.93810
Zr2613     Zr  0.67445144  0.88306727  0.92204056     2.64680
O2614       O  0.67381503  0.88146139  0.00714524    -0.98770
O2615       O  0.67661594  0.82653821  0.91274518    -0.80830
O2616       O  0.69832282  0.93006395  0.92211276    -0.84190
O2617       O  0.64514786  0.92769412  0.92194753    -2.18900
O2618       O  0.63093398  0.98737774  0.76094339    -0.67580
O2619       O  0.59517221  0.96276556  0.79779417    -0.52140
C2620       C  0.60559409  0.98128178  0.76665444     0.71190
O2621       O  0.72030766  0.87026923  0.76106189    -0.60480
O2622       O  0.75441608  0.89321711  0.80306619    -0.52460
C2623       C  0.74543864  0.87538425  0.76956896     0.73000
O2624       O  0.63282362  0.87039920  0.75215296    -0.71880
O2625       O  0.59716112  0.89499995  0.78973720    -0.50560
C2626       C  0.60736307  0.87717378  0.75683517     0.74380
O2627       O  0.71906460  0.98152644  0.75203104    -0.67210
O2628       O  0.75364307  0.96114069  0.79545798    -0.54410
C2629       C  0.74440158  0.97604888  0.75896318     0.72760
Zr2630     Zr  0.67526741  0.97358523  0.78780767     2.77540
O2631       O  0.67307352  0.97573804  0.70272199    -0.97960
O2632       O  0.68039604  0.52990069  0.79319118    -0.78780
Zr2633     Zr  0.67555347  0.88237375  0.78893713     2.70070
O2634       O  0.68068673  0.87769864  0.70446463    -0.80030
O2635       O  0.67316598  0.82633851  0.80117449    -0.99110
Zr2636     Zr  0.72970170  0.92974522  0.85836703     2.21500
Zr2637     Zr  0.61802246  0.92739673  0.85260178     2.11130
O2638       O  0.64857323  0.92788571  0.78627205    -2.47800
O2639       O  0.70224335  0.92816246  0.78989362    -0.79820
O2640       O  0.64412969  0.97472604  0.85168876    -0.72020
O2641       O  0.70351077  0.88230530  0.85610988    -2.32970
O2642       O  0.70157522  0.97589656  0.85642077    -2.29180
O2643       O  0.64637802  0.88122636  0.85497120    -0.73770
H2644       H  0.63366231  0.92766941  0.94970342     0.78220
H2645       H  0.71521404  0.86405989  0.85667453     0.79310
H2646       H  0.63857051  0.92816194  0.75740147     0.81540
H2647       H  0.71314092  0.99414270  0.85642220     0.79140
H2648       H  0.69636453  0.82127854  0.91351387     0.42180
H2649       H  0.65374290  0.82241302  0.80954924     0.41150
H2650       H  0.68528027  0.89909090  0.69385574     0.40830
H2651       H  0.65809062  0.96154592  0.69356278     0.38760
H2652       H  0.68098646  0.53715021  0.76031266     0.41890
H2653       H  0.68653543  0.53266667  0.88460989     0.36680
H2654       H  0.65725374  0.95605087  0.01441644     0.42790
H2655       H  0.65620455  0.89112942  0.01696187     0.39210
H2656       H  0.66646607  0.99701394  0.69516599     0.44130
H2657       H  0.70336044  0.52949162  0.93023611     0.42850
H2658       H  0.67181530  0.85899155  0.01450761     0.42990
H2659       H  0.67544254  0.81728122  0.76944723     0.43340
C2660       C  0.67658028  0.67363360  0.85908562    -0.02720
C2661       C  0.67533778  0.92565012  0.35108958    -0.02720
C2662       C  0.92886615  0.67491549  0.34259211    -0.02720
O2663       O  0.99490800  0.62122185  0.66745554    -0.75530
O2664       O  0.51412287  0.59126717  0.72464043    -0.54430
C2665       C  0.49727137  0.61201356  0.70924332     0.78200
O2666       O  0.99099138  0.49288430  0.53930059    -0.60130
O2667       O  0.51670835  0.51601706  0.48134446    -0.53160
C2668       C  0.49714668  0.49805949  0.49678031     0.70220
O2669       O  0.99272859  0.49742327  0.68918492    -0.74690
O2670       O  0.51788357  0.52345877  0.74337147    -0.55250
C2671       C  0.49938114  0.50371158  0.73143656     0.76220
O2672       O  0.00217936  0.61911818  0.52060883    -0.59830
O2673       O  0.52047696  0.58605310  0.46700668    -0.52950
C2674       C  0.50449602  0.60928550  0.47852329     0.72810
Zr2675     Zr  0.51415346  0.60213214  0.59820150     2.54710
O2676       O  0.96446039  0.59799940  0.59531592    -0.80400
O2677       O  0.51719566  0.65811143  0.58937354    -0.93810
Zr2678     Zr  0.50694275  0.51219207  0.61052267     2.64680
O2679       O  0.95820463  0.52456270  0.61323983    -0.98770
O2680       O  0.49925496  0.95647892  0.61927297    -0.80830
O2681       O  0.50934105  0.55944418  0.65076510    -0.84190
O2682       O  0.51029439  0.55519725  0.55793979    -2.18900
O2683       O  0.61279834  0.60952988  0.53632454    -0.67580
O2684       O  0.58653894  0.58742493  0.47931729    -0.52140
C2685       C  0.60642294  0.60500945  0.49399850     0.71190
O2686       O  0.59598454  0.48946157  0.68865974    -0.60480
O2687       O  0.57217867  0.51756309  0.74425743    -0.52460
C2688       C  0.58910822  0.49618620  0.73138908     0.73000
O2689       O  0.60350852  0.48821462  0.52673389    -0.71880
O2690       O  0.58210231  0.51646627  0.46978912    -0.50560
C2691       C  0.59952451  0.49573074  0.48338759     0.74380
O2692       O  0.60960958  0.60845094  0.68506557    -0.67210
O2693       O  0.58134512  0.58840499  0.74122813    -0.54410
C2694       C  0.60221428  0.60489556  0.72792970     0.72760
Zr2695     Zr  0.59370813  0.59411539  0.60827964     2.77540
O2696       O  0.64308856  0.58691339  0.61252081    -0.97960
O2697       O  0.59446862  0.65091821  0.60573113    -0.78780
Zr2698     Zr  0.58707408  0.50272737  0.60667968     2.70070
O2699       O  0.63647404  0.49582208  0.61037228    -0.80030
O2700       O  0.57966369  0.94667316  0.60480756    -0.99110
Zr2701     Zr  0.54914161  0.55553402  0.69694375     2.21500
Zr2702     Zr  0.55153807  0.55164275  0.51319286     2.11130
O2703       O  0.59125854  0.54840836  0.56134630    -2.47800
O2704       O  0.59065501  0.54861554  0.65347896    -0.79820
O2705       O  0.55571128  0.59838353  0.55707982    -0.72020
O2706       O  0.54699400  0.50785469  0.65369956    -2.32970
O2707       O  0.55240434  0.60124972  0.64975851    -2.29180
O2708       O  0.54688648  0.50612052  0.56184356    -0.73770
H2709       H  0.99437490  0.55618305  0.53830450     0.78220
H2710       H  0.54525603  0.98995511  0.67400533     0.79310
H2711       H  0.60773179  0.54705742  0.54238659     0.81540
H2712       H  0.55302768  0.62000948  0.66857452     0.79140
H2713       H  0.51399951  0.94939934  0.64021036     0.42180
H2714       H  0.56309269  0.94436277  0.58562952     0.41150
H2715       H  0.64363731  0.51715374  0.61546833     0.40830
H2716       H  0.64846827  0.57584777  0.58334939     0.38760
H2717       H  0.58362938  0.65646737  0.57789876     0.41890
H2718       H  0.53298733  0.66250954  0.60941164     0.36680
H2719       H  0.95889777  0.58711996  0.62444376     0.42790
H2720       H  0.95350894  0.53058381  0.58088173     0.39210
H2721       H  0.65054573  0.60824887  0.60878194     0.44130
H2722       H  0.00113447  0.66677098  0.60652044     0.42850
H2723       H  0.94910510  0.50415403  0.61802686     0.42990
H2724       H  0.59466462  0.93843455  0.58462963     0.43340
O2725       O  0.99699908  0.85678993  0.02306007    -0.75530
O2726       O  0.52018969  0.83162882  0.96559555    -0.54430
C2727       C  0.50195808  0.85112094  0.97973036     0.78200
O2728       O  0.61194988  0.85764753  0.17542897    -0.60130
O2729       O  0.58763730  0.83345758  0.23370910    -0.53160
C2730       C  0.60696208  0.85135061  0.21903664     0.70220
O2731       O  0.59646563  0.86257061  0.01547179    -0.74690
O2732       O  0.57072846  0.83709408  0.96132080    -0.55250
C2733       C  0.58813451  0.85773421  0.97339326     0.76220
O2734       O  0.99683113  0.85993434  0.17495448    -0.59830
O2735       O  0.52250640  0.83654372  0.23133929    -0.52950
C2736       C  0.50291140  0.85433577  0.21705258     0.72810
Zr2737     Zr  0.51308579  0.84602010  0.10111050     2.54710
O2738       O  0.51925141  0.90175104  0.09926218    -0.80400
O2739       O  0.96336227  0.85142200  0.10480871    -0.93810
Zr2740     Zr  0.59307028  0.84641076  0.09717314     2.64680
O2741       O  0.59497862  0.90325748  0.09691394    -0.98770
O2742       O  0.64248478  0.84356317  0.08650210    -0.80830
O2743       O  0.55215209  0.84613070  0.05378703    -0.84190
O2744       O  0.55380585  0.84836823  0.14586913    -2.18900
O2745       O  0.00294068  0.73989680  0.19236408    -0.67580
O2746       O  0.52872045  0.76765991  0.24352428    -0.52140
C2747       C  0.51054783  0.74695242  0.23393932     0.71190
O2748       O  0.60818816  0.74307849  0.01790559    -0.60480
O2749       O  0.58348145  0.76981177  0.96436883    -0.52460
C2750       C  0.60327932  0.75159525  0.97596191     0.73000
O2751       O  0.61115699  0.74227144  0.16783421    -0.71880
O2752       O  0.58976183  0.76955520  0.22651653    -0.50560
C2753       C  0.60779399  0.75029518  0.21029338     0.74380
O2754       O  0.99331863  0.73921468  0.03956344    -0.67210
O2755       O  0.51575640  0.76421839  0.97960175    -0.54410
C2756       C  0.49726316  0.74599607  0.99664601     0.72760
Zr2757     Zr  0.51154007  0.75543827  0.11153752     2.77540
O2758       O  0.50133378  0.69997886  0.11560838    -0.97960
O2759       O  0.96320597  0.76836086  0.12171862    -0.78780
Zr2760     Zr  0.59107555  0.75376545  0.09538893     2.70070
O2761       O  0.58052821  0.69828508  0.09267456    -0.80030
O2762       O  0.63977164  0.74170600  0.08911232    -0.99110
Zr2763     Zr  0.54973934  0.79866054  0.01105601     2.21500
Zr2764     Zr  0.55515551  0.80187090  0.19187080     2.11130
O2765       O  0.55383398  0.75394532  0.14942356    -2.47800
O2766       O  0.54907405  0.75191288  0.05667588    -0.79820
O2767       O  0.51288096  0.80255459  0.15233738    -0.72020
O2768       O  0.59211374  0.80025971  0.05134676    -2.32970
O2769       O  0.51013913  0.79913501  0.06061844    -2.29180
O2770       O  0.59404007  0.80002217  0.14099892    -0.73770
H2771       H  0.55402808  0.86686792  0.16528740     0.78220
H2772       H  0.60768824  0.80098745  0.03023913     0.79310
H2773       H  0.55490974  0.73609532  0.16996142     0.81540
H2774       H  0.99329802  0.79929796  0.04330287     0.79140
H2775       H  0.64691709  0.82104710  0.08919851     0.42180
H2776       H  0.64888747  0.75728712  0.10914294     0.41150
H2777       H  0.57538360  0.69267124  0.12519453     0.40830
H2778       H  0.51325805  0.69190022  0.14056011     0.38760
H2779       H  0.96116160  0.77486577  0.15485030     0.41890
H2780       H  0.95639844  0.83858487  0.07871069     0.36680
H2781       H  0.52948617  0.90429331  0.06940449     0.42790
H2782       H  0.57956944  0.90996374  0.11743209     0.39210
H2783       H  0.98252894  0.69883370  0.12892204     0.44130
H2784       H  0.95957793  0.87328226  0.09559832     0.42850
H2785       H  0.61169224  0.90853877  0.11443419     0.42990
H2786       H  0.64252251  0.72135606  0.10481312     0.43340
O2787       O  0.85139799  0.98046484  0.02510058    -0.75530
O2788       O  0.88090111  0.51970510  0.03499162    -0.54430
C2789       C  0.87260967  0.49500093  0.01252952     0.78200
O2790       O  0.76155895  0.60486320  0.00255372    -0.60130
O2791       O  0.72643465  0.57913116  0.03880644    -0.53160
C2792       C  0.73614951  0.59746583  0.00602334     0.70220
O2793       O  0.85028376  0.60342019  0.01150791    -0.74690
O2794       O  0.88605792  0.58383018  0.05304396    -0.55250
C2795       C  0.87574792  0.59936908  0.01903259     0.76220
O2796       O  0.77203046  0.98877413  0.99374775    -0.59830
O2797       O  0.73561702  0.50880155  0.03603220    -0.52950
C2798       C  0.74673740  0.49244423  0.00129327     0.72810
Zr2799     Zr  0.80858716  0.50521558  0.03707045     2.54710
O2800       O  0.81557280  0.53031738  0.96082679    -0.80400
O2801       O  0.80101901  0.94910062  0.02756062    -0.93810
Zr2802     Zr  0.80487911  0.59637557  0.04121449     2.64680
O2803       O  0.81355891  0.61883699  0.96435849    -0.98770
O2804       O  0.80079319  0.65008238  0.06836436    -0.80830
O2805       O  0.83359241  0.55153849  0.03777421    -0.84190
O2806       O  0.77987757  0.54947623  0.03630307    -2.18900
O2807       O  0.76048929  0.99196019  0.20584880    -0.67580
O2808       O  0.72592046  0.51491972  0.16491199    -0.52140
C2809       C  0.73517310  0.49854561  0.20010887     0.71190
O2810       O  0.84870383  0.60771801  0.20176413    -0.60480
O2811       O  0.88385405  0.58443539  0.16089721    -0.52460
C2812       C  0.87421293  0.60312436  0.19293431     0.73000
O2813       O  0.75952433  0.60589832  0.19900116    -0.71880
O2814       O  0.72509416  0.58405196  0.15610852    -0.50560
C2815       C  0.73433813  0.60151817  0.18981380     0.74380
O2816       O  0.84871892  0.99199299  0.19899980    -0.67210
O2817       O  0.88449753  0.51288719  0.15746510    -0.54410
C2818       C  0.87412620  0.49642796  0.19101729     0.72760
Zr2819     Zr  0.80431260  0.50181768  0.16968704     2.77540
O2820       O  0.81147402  0.49177723  0.25253526    -0.97960
O2821       O  0.80252780  0.94602636  0.15321130    -0.78780
Zr2822     Zr  0.80448266  0.59279140  0.17291748     2.70070
O2823       O  0.80290687  0.59243373  0.25808767    -0.80030
O2824       O  0.80507634  0.64930293  0.16612981    -0.99110
Zr2825     Zr  0.86120857  0.54894585  0.10494550     2.21500
Zr2826     Zr  0.74921394  0.54688882  0.10133658     2.11130
O2827       O  0.77739790  0.54740485  0.17007442    -2.47800
O2828       O  0.83154310  0.54737123  0.17230880    -0.79820
O2829       O  0.77776731  0.50129918  0.10142078    -0.72020
O2830       O  0.83334913  0.59549036  0.10696310    -2.32970
O2831       O  0.83464608  0.50212403  0.10518767    -2.29180
O2832       O  0.77569766  0.59435399  0.10673565    -0.73770
H2833       H  0.77028054  0.54909733  0.00705183     0.78220
H2834       H  0.84455438  0.61403124  0.10787594     0.79310
H2835       H  0.76630193  0.54793811  0.19820546     0.81540
H2836       H  0.84594978  0.98359310  0.10658772     0.79140
H2837       H  0.81990803  0.65730189  0.07169597     0.42180
H2838       H  0.78557026  0.65566707  0.16664556     0.41150
H2839       H  0.81355252  0.57366928  0.26693868     0.40830
H2840       H  0.80728807  0.51182840  0.26841287     0.38760
H2841       H  0.78277454  0.94141506  0.15022504     0.41890
H2842       H  0.78850701  0.94376992  0.05382389     0.36680
H2843       H  0.83552467  0.53345535  0.95631734     0.42790
H2844       H  0.81152319  0.60098712  0.94268901     0.39210
H2845       H  0.79702822  0.97709006  0.26289271     0.44130
H2846       H  0.81829481  0.93840107  0.03574983     0.42850
H2847       H  0.79809930  0.63308609  0.95773387     0.42990
H2848       H  0.81227107  0.65622164  0.19660754     0.43340
C2849       C  0.80420452  0.80581322  0.09711062    -0.02720
C2850       C  0.54809813  0.80241262  0.61235491    -0.02720
O2851       O  0.62141268  0.73676039  0.43714095    -0.75530
O2852       O  0.64505742  0.71021603  0.49208313    -0.54430
C2853       C  0.62598588  0.72997390  0.48024115     0.78200
O2854       O  0.62238441  0.61898722  0.26852182    -0.60130
O2855       O  0.64593569  0.64422092  0.21171926    -0.53160
C2856       C  0.62779238  0.62407978  0.22514522     0.70220
O2857       O  0.61798924  0.61623552  0.41791567    -0.74690
O2858       O  0.64277943  0.63994593  0.47554706    -0.55250
C2859       C  0.62357535  0.62153528  0.46042796     0.76220
O2860       O  0.62172194  0.74255097  0.28530384    -0.59830
O2861       O  0.64282253  0.71508922  0.22593116    -0.52950
C2862       C  0.62554163  0.73524050  0.24251077     0.72810
Zr2863     Zr  0.63718125  0.72357359  0.35766038     2.54710
O2864       O  0.58785861  0.71638547  0.35403784    -0.80400
O2865       O  0.63519030  0.78006614  0.36648620    -0.93810
Zr2866     Zr  0.63720700  0.63304636  0.34674251     2.64680
O2867       O  0.58742812  0.63207537  0.34520818    -0.98770
O2868       O  0.64411067  0.57710103  0.34375556    -0.80830
O2869       O  0.63695458  0.67658623  0.39886564    -0.84190
O2870       O  0.63617213  0.67994636  0.30565037    -2.18900
O2871       O  0.73205384  0.73930718  0.26767039    -0.67580
O2872       O  0.70795199  0.71355951  0.21185497    -0.52140
C2873       C  0.72664671  0.73316763  0.22460966     0.71190
O2874       O  0.73260964  0.61669226  0.42828690    -0.60480
O2875       O  0.70994968  0.64268198  0.48626158    -0.52460
C2876       C  0.72845741  0.62283158  0.47234261     0.73000
O2877       O  0.72312968  0.61249913  0.26731237    -0.71880
O2878       O  0.70078920  0.63988523  0.21051157    -0.50560
C2879       C  0.71687182  0.61794103  0.22417509     0.74380
O2880       O  0.73618955  0.73772105  0.41933026    -0.67210
O2881       O  0.71250203  0.71236077  0.47764664    -0.54410
C2882       C  0.73141798  0.73128875  0.46225537     0.72760
Zr2883     Zr  0.71693206  0.72318363  0.34625892     2.77540
O2884       O  0.76661898  0.72402233  0.34691457    -0.97960
O2885       O  0.71133433  0.77963016  0.34720681    -0.78780
Zr2886     Zr  0.71665981  0.63094107  0.34839171     2.70070
O2887       O  0.76620414  0.63115188  0.33813518    -0.80030
O2888       O  0.71319278  0.57461069  0.35721051    -0.99110
Zr2889     Zr  0.67756559  0.67694465  0.44402438     2.21500
Zr2890     Zr  0.67626458  0.67907503  0.25671285     2.11130
O2891       O  0.71753768  0.67693125  0.30105356    -2.47800
O2892       O  0.71703852  0.67723994  0.39327618    -0.79820
O2893       O  0.67572373  0.72502120  0.30495967    -0.72020
O2894       O  0.67654709  0.63115827  0.39520517    -2.32970
O2895       O  0.67843007  0.72396895  0.39883022    -2.29180
O2896       O  0.67716855  0.63208222  0.30114469    -0.73770
H2897       H  0.61966556  0.68028688  0.28742595     0.78220
H2898       H  0.67616716  0.61244494  0.41406797     0.79310
H2899       H  0.73341981  0.67644691  0.28054949     0.81540
H2900       H  0.67898460  0.74216479  0.41884501     0.79140
H2901       H  0.65535853  0.57393400  0.31505744     0.42180
H2902       H  0.70988973  0.56666057  0.32525867     0.41150
H2903       H  0.77246901  0.64857061  0.35812075     0.40830
H2904       H  0.77227507  0.70512297  0.32926671     0.38760
H2905       H  0.70642964  0.78518583  0.31476260     0.41890
H2906       H  0.64407772  0.78449841  0.39669726     0.36680
H2907       H  0.58442397  0.69644932  0.37058167     0.42790
H2908       H  0.58220956  0.64587634  0.31900132     0.39210
H2909       H  0.77209017  0.74185190  0.32689133     0.44130
H2910       H  0.61557167  0.78487376  0.37212357     0.42850
H2911       H  0.58300935  0.61074890  0.33427234     0.42990
H2912       H  0.73203443  0.56781193  0.36457286     0.43340
O2913       O  0.85877313  0.73534825  0.67375508    -0.75530
O2914       O  0.83856150  0.76378873  0.73292373    -0.54430
C2915       C  0.85528887  0.74300463  0.71660466     0.78200
O2916       O  0.86169568  0.86248968  0.53823804    -0.60130
O2917       O  0.83671903  0.83858500  0.48114002    -0.53160
C2918       C  0.85557256  0.85742174  0.49600732     0.70220
O2919       O  0.86178854  0.86043993  0.68497544    -0.74690
O2920       O  0.83873427  0.83407467  0.74224920    -0.55250
C2921       C  0.85669210  0.85442945  0.72808607     0.76220
O2922       O  0.85897148  0.73925562  0.52152421    -0.59830
O2923       O  0.83547129  0.76709146  0.46717780    -0.52950
C2924       C  0.85432476  0.74694256  0.47875727     0.72810
Zr2925     Zr  0.84215951  0.75247285  0.60035835     2.54710
O2926       O  0.89165387  0.74650477  0.60335480    -0.80400
O2927       O  0.83394814  0.69744135  0.58862156    -0.93810
Zr2928     Zr  0.84622234  0.84273115  0.60968921     2.64680
O2929       O  0.89528953  0.83213646  0.61030791    -0.98770
O2930       O  0.85006599  0.89912404  0.61190169    -0.80830
O2931       O  0.84542894  0.79617285  0.65190745    -0.84190
O2932       O  0.84442319  0.79916881  0.55820453    -2.18900
O2933       O  0.74376454  0.74164327  0.53895978    -0.67580
O2934       O  0.76826581  0.76582532  0.48045947    -0.52140
C2935       C  0.74907339  0.74728235  0.49593664     0.71190
O2936       O  0.75660955  0.86476817  0.69162166    -0.60480
O2937       O  0.78037917  0.83847637  0.74792768    -0.52460
C2938       C  0.76317973  0.85950428  0.73470814     0.73000
O2939       O  0.74887915  0.86231118  0.53051568    -0.71880
O2940       O  0.77288766  0.83823772  0.47210548    -0.50560
C2941       C  0.75411825  0.85772799  0.48627955     0.74380
O2942       O  0.74917238  0.73930293  0.69000586    -0.67210
O2943       O  0.77438454  0.76421313  0.74523186    -0.54410
C2944       C  0.75564643  0.74446544  0.73280985     0.72760
Zr2945     Zr  0.76235703  0.75747014  0.61215106     2.77540
O2946       O  0.71347616  0.76716730  0.62117688    -0.97960
O2947       O  0.75965727  0.70071049  0.60955177    -0.78780
Zr2948     Zr  0.76622994  0.84889289  0.61002983     2.70070
O2949       O  0.71699773  0.85720058  0.61637545    -0.80030
O2950       O  0.77778756  0.90365967  0.60633021    -0.99110
Zr2951     Zr  0.80565230  0.79980813  0.70110686     2.21500
Zr2952     Zr  0.80318573  0.80123128  0.51412969     2.11130
O2953       O  0.76351195  0.80295451  0.56466788    -2.47800
O2954       O  0.76412527  0.80336511  0.65783940    -0.79820
O2955       O  0.80073801  0.75451838  0.55957449    -0.72020
O2956       O  0.80638036  0.84635720  0.65566945    -2.32970
O2957       O  0.80374015  0.75373228  0.65303286    -2.29180
O2958       O  0.80622139  0.84663322  0.56294877    -0.73770
H2959       H  0.86048036  0.79892982  0.53813205     0.78220
H2960       H  0.80771234  0.86470349  0.67520446     0.79310
H2961       H  0.74699871  0.80375164  0.54649441     0.81540
H2962       H  0.80354631  0.73507133  0.67200617     0.79140
H2963       H  0.83243568  0.90586609  0.62605070     0.42180
H2964       H  0.78479180  0.90664948  0.57399660     0.41150
H2965       H  0.70994982  0.83780532  0.63096318     0.40830
H2966       H  0.70743749  0.77469322  0.59023267     0.38760
H2967       H  0.76917419  0.69467842  0.58008057     0.41890
H2968       H  0.81809181  0.69395646  0.60969026     0.36680
H2969       H  0.89832688  0.76686724  0.61497327     0.42790
H2970       H  0.89987038  0.82428530  0.57854233     0.39210
H2971       H  0.70552341  0.74601724  0.62422448     0.44130
H2972       H  0.84954040  0.68684893  0.60376834     0.42850
H2973       H  0.90388530  0.85303591  0.61167526     0.42990
H2974       H  0.75981948  0.91421175  0.60699362     0.43340
C2975       C  0.80243553  0.55069104  0.60880363    -0.02720
C2976       C  0.55213960  0.55002668  0.10078814    -0.02720
C2977       C  0.57165930  0.57121083  0.18151349    -0.02080
C2978       C  0.57216022  0.57187994  0.13136332     0.07600
C2979       C  0.59106441  0.59483725  0.11209785    -0.02200
C2980       C  0.60853403  0.61280408  0.14202249    -0.02200
C2981       C  0.61100461  0.60536043  0.19026926     0.07730
C2982       C  0.59421810  0.58088366  0.20701957    -0.02390
Br2983     Br  0.60056622  0.55827747  0.26444756    -0.00940
Br2984     Br  0.53860513  0.57157663  0.21999408    -0.01010
Br2985     Br  0.62820196  0.64801471  0.11636992    -0.00970
Br2986     Br  0.59211778  0.60561354  0.04605068    -0.00960
C2987       C  0.76949423  0.58792407  0.49386701    -0.02080
C2988       C  0.74617623  0.60521453  0.50860612     0.07600
C2989       C  0.73964450  0.60312803  0.55743743    -0.02200
C2990       C  0.75650007  0.58561481  0.58948337    -0.02200
C2991       C  0.78045009  0.56817240  0.57403270     0.07730
C2992       C  0.78195007  0.56577047  0.52342424    -0.02390
Br2993     Br  0.78946795  0.52746602  0.48871778    -0.00940
Br2994     Br  0.78672534  0.59377364  0.43307464    -0.01010
Br2995     Br  0.74525111  0.58680131  0.65439475    -0.00970
Br2996     Br  0.70812091  0.62533596  0.58243868    -0.00960
C2997       C  0.56882619  0.78348988  0.52844281    -0.02080
C2998       C  0.57119522  0.78522175  0.57857623     0.07600
C2999       C  0.59642906  0.77071125  0.59481453    -0.02200
C3000       C  0.61473516  0.75374595  0.56349229    -0.02200
C3001       C  0.60743985  0.74701014  0.51656557     0.07730
C3002       C  0.58221578  0.75995918  0.50221406    -0.02390
Br3003     Br  0.56335358  0.74528813  0.44750888    -0.00940
Br3004     Br  0.55920675  0.81825865  0.48827962    -0.01010
Br3005     Br  0.64943993  0.73878733  0.58595104    -0.00970
Br3006     Br  0.60653556  0.77024071  0.65995705    -0.00960
C3007       C  0.79132634  0.76094021  0.15931384    -0.02080
C3008       C  0.78197145  0.78477838  0.12674752     0.07600
C3009       C  0.75214824  0.78670621  0.12368818    -0.02200
C3010       C  0.73455582  0.77099125  0.15647524    -0.02200
C3011       C  0.74470380  0.74900010  0.18826369     0.07730
C3012       C  0.77298577  0.74346314  0.18813234    -0.02390
Br3013     Br  0.78670848  0.71193743  0.23054666    -0.00940
Br3014     Br  0.82930429  0.75167675  0.17118272    -0.01010
Br3015     Br  0.69590716  0.78075800  0.16031376    -0.00970
Br3016     Br  0.73195924  0.80450590  0.07215129    -0.00960
C3017       C  0.91214487  0.62206915  0.30208419    -0.02080
C3018       C  0.91297658  0.65560923  0.30349137     0.07600
C3019       C  0.89961743  0.67087951  0.26485251    -0.02200
C3020       C  0.88974107  0.65368342  0.22613462    -0.02200
C3021       C  0.89262465  0.62109757  0.22393897     0.07730
C3022       C  0.90533279  0.60575907  0.26079436    -0.02390
Br3023     Br  0.91305129  0.56179217  0.25408606    -0.00940
Br3024     Br  0.91249889  0.59665501  0.35728733    -0.01010
Br3025     Br  0.87334193  0.67470082  0.17333788    -0.00970
Br3026     Br  0.89198795  0.71482990  0.26315615    -0.00960
C3027       C  0.96931445  0.68402576  0.28175123    -0.02080
C3028       C  0.94973890  0.69753374  0.31387049     0.07600
C3029       C  0.95131937  0.73146736  0.31594791    -0.02200
C3030       C  0.97388762  0.74743650  0.29482375    -0.02200
C3031       C  0.99516438  0.73112746  0.27224002     0.07730
C3032       C  0.99433183  0.69865227  0.27232299    -0.02390
Br3033     Br  0.52422223  0.67502660  0.24479622    -0.00940
Br3034     Br  0.95760048  0.66484202  0.22387775    -0.01010
Br3035     Br  0.97565859  0.79228484  0.29255414    -0.00970
Br3036     Br  0.92217669  0.75928821  0.33684924    -0.00960
C3037       C  0.96053156  0.63893353  0.45749818    -0.02080
C3038       C  0.98582788  0.62507801  0.44298154     0.07600
C3039       C  0.99098962  0.62370575  0.39433450    -0.02200
C3040       C  0.97159744  0.63513849  0.36146601    -0.02200
C3041       C  0.94715434  0.65216374  0.37603212     0.07730
C3042       C  0.94047962  0.64767785  0.42480039    -0.02390
Br3043     Br  0.90299520  0.64453699  0.44877910    -0.00940
Br3044     Br  0.95188776  0.64925552  0.52218210    -0.01010
Br3045     Br  0.97539589  0.61437885  0.30165392    -0.00970
Br3046     Br  0.52566413  0.60732451  0.37145265    -0.00960
C3047       C  0.86151754  0.71338974  0.40489239    -0.02080
C3048       C  0.87261061  0.73103100  0.44160221     0.07600
C3049       C  0.90134986  0.72950722  0.44704147    -0.02200
C3050       C  0.91885427  0.71334781  0.41455996    -0.02200
C3051       C  0.90809136  0.69487717  0.37639456     0.07730
C3052       C  0.87825732  0.69360911  0.37563121    -0.02390
Br3053     Br  0.85762529  0.66022891  0.34669229    -0.00940
Br3054     Br  0.82213486  0.71311182  0.39935775    -0.01010
Br3055     Br  0.95811722  0.71812969  0.42412339    -0.00970
Br3056     Br  0.91718363  0.74929449  0.50085317    -0.00960
C3057       C  0.63371551  0.91749169  0.29385329    -0.02080
C3058       C  0.65490614  0.90320625  0.32244384     0.07600
C3059       C  0.65646636  0.86937588  0.31903944    -0.02200
C3060       C  0.64183824  0.85293197  0.28391643    -0.02200
C3061       C  0.62303630  0.86819493  0.25514971     0.07730
C3062       C  0.61883539  0.90010283  0.26078007    -0.02390
Br3063     Br  0.59483152  0.92037385  0.21691520    -0.00940
Br3064     Br  0.62518151  0.96167614  0.29213079    -0.01010
Br3065     Br  0.65045236  0.80998952  0.26938162    -0.00970
Br3066     Br  0.67467767  0.84217746  0.36269708    -0.00960
C3067       C  0.72571532  0.98605930  0.28555827    -0.02080
C3068       C  0.71698461  0.98517339  0.23835581     0.07600
C3069       C  0.69632187  0.96423813  0.22732704    -0.02200
C3070       C  0.68807412  0.94120613  0.26008421    -0.02200
C3071       C  0.69248105  0.94468824  0.31050599     0.07730
C3072       C  0.71410106  0.96629983  0.32093123    -0.02390
Br3073     Br  0.72768121  0.97231853  0.38351893    -0.00940
Br3074     Br  0.75201927  0.01754146  0.30288414    -0.01010
Br3075     Br  0.68301975  0.90182698  0.22728139    -0.00970
Br3076     Br  0.68200989  0.96407993  0.16437597    -0.00960
C3077       C  0.61341650  0.94767342  0.43801789    -0.02080
C3078       C  0.61666406  0.97953512  0.44661973     0.07600
C3079       C  0.63703861  0.49560600  0.42151783    -0.02200
C3080       C  0.65327033  0.98043486  0.38632376    -0.02200
C3081       C  0.65393983  0.94646027  0.38226808     0.07730
C3082       C  0.63274559  0.93092552  0.41003526    -0.02390
Br3083     Br  0.63118376  0.88652069  0.41992611    -0.00940
Br3084     Br  0.58246721  0.92681120  0.46715975    -0.01010
Br3085     Br  0.66914270  0.50980041  0.34287652    -0.00970
Br3086     Br  0.64422667  0.53846762  0.43906171    -0.00960
C3087       C  0.72151024  0.90265520  0.46501514    -0.02080
C3088       C  0.73691126  0.87642419  0.45034665     0.07600
C3089       C  0.73612377  0.87015347  0.40156590    -0.02200
C3090       C  0.71950051  0.88853732  0.37045925    -0.02200
C3091       C  0.69756544  0.90890777  0.38696883     0.07730
C3092       C  0.70027270  0.91597465  0.43713166    -0.02390
Br3093     Br  0.67987854  0.94664717  0.47391145    -0.00940
Br3094     Br  0.73412359  0.92548956  0.51960916    -0.01010
Br3095     Br  0.72838307  0.88380941  0.30516551    -0.00970
Br3096     Br  0.75824372  0.83655326  0.37549627    -0.00960
C3097       C  0.65311301  0.62052811  0.82619674    -0.02080
C3098       C  0.65872946  0.65369455  0.82236748     0.07600
C3099       C  0.64560915  0.66890533  0.78314942    -0.02200
C3100       C  0.62634052  0.65315539  0.75487167    -0.02200
C3101       C  0.61957140  0.62170143  0.76276585     0.07730
C3102       C  0.63256016  0.60577381  0.79911495    -0.02390
Br3103     Br  0.62192034  0.56296722  0.81159073    -0.00940
Br3104     Br  0.67523233  0.59136722  0.85993771    -0.01010
Br3105     Br  0.60549591  0.67625408  0.70878151    -0.00970
Br3106     Br  0.65023659  0.71230785  0.76703401    -0.00960
C3107       C  0.65008529  0.73565444  0.95094783    -0.02080
C3108       C  0.62226363  0.73871149  0.94014414     0.07600
C3109       C  0.61204775  0.72331481  0.90129309    -0.02200
C3110       C  0.62721343  0.69900529  0.88041721    -0.02200
C3111       C  0.65656041  0.69598884  0.88819873     0.07730
C3112       C  0.66711254  0.71444664  0.92626873    -0.02390
Br3113     Br  0.70525900  0.71479719  0.94408624    -0.00940
Br3114     Br  0.66562833  0.76500970  0.99495390    -0.01010
Br3115     Br  0.60225012  0.66644295  0.85986798    -0.00970
Br3116     Br  0.57611532  0.73399658  0.87831877    -0.00960
C3117       C  0.67731800  0.63937709  0.93954926    -0.02080
C3118       C  0.69163836  0.65230603  0.89860343     0.07600
C3119       C  0.72044751  0.64463652  0.89764965    -0.02200
C3120       C  0.73069839  0.62003381  0.92501051    -0.02200
C3121       C  0.71843735  0.61211139  0.96826546     0.07730
C3122       C  0.69143535  0.62260401  0.97548328    -0.02390
Br3123     Br  0.67360946  0.61332847  0.03440827    -0.00940
Br3124     Br  0.63826337  0.64079626  0.94885334    -0.01010
Br3125     Br  0.76026003  0.59528385  0.89908470    -0.00970
Br3126     Br  0.75015847  0.67155690  0.87759747    -0.00960
C3127       C  0.73454440  0.69426844  0.76375178    -0.02080
C3128       C  0.73914779  0.72656993  0.76912451     0.07600
C3129       C  0.72400526  0.74244334  0.80374385    -0.02200
C3130       C  0.70212651  0.72754205  0.82846986    -0.02200
C3131       C  0.69846866  0.69355078  0.82750082     0.07730
C3132       C  0.71526550  0.67788548  0.79240268    -0.02390
Br3133     Br  0.71459012  0.63311330  0.78280318    -0.00940
Br3134     Br  0.75682599  0.67162555  0.71846744    -0.01010
Br3135     Br  0.67493335  0.75828689  0.84845150    -0.00970
Br3136     Br  0.73181751  0.78639087  0.81402489    -0.00960
C3137       C  0.59723805  0.86366837  0.67321643    -0.02080
C3138       C  0.58962115  0.86215226  0.72095353     0.07600
C3139       C  0.57013410  0.84022734  0.73483751    -0.02200
C3140       C  0.55963150  0.81838987  0.70235408    -0.02200
C3141       C  0.56387997  0.82206158  0.65191025     0.07730
C3142       C  0.58500850  0.84403218  0.63922987    -0.02390
Br3143     Br  0.59679625  0.85078669  0.57518259    -0.00940
Br3144     Br  0.62339220  0.89517513  0.65384123    -0.01010
Br3145     Br  0.54840379  0.78028942  0.73400000    -0.00970
Br3146     Br  0.56074514  0.83775451  0.80095197    -0.00960
C3147       C  0.56794223  0.98791936  0.00017944    -0.02080
C3148       C  0.59059131  0.00158751  0.97684781     0.07600
C3149       C  0.60407204  0.52597365  0.00191257    -0.02200
C3150       C  0.59604880  0.53421548  0.04812791    -0.02200
C3151       C  0.56971901  0.52664568  0.06617123     0.07730
C3152       C  0.55966131  0.49823912  0.04570598    -0.02390
Br3153     Br  0.54250196  0.46612228  0.08270683    -0.00940
Br3154     Br  0.54677905  0.95538771  0.97053896    -0.01010
Br3155     Br  0.62657400  0.53776641  0.09040824    -0.00970
Br3156     Br  0.63415992  0.54997329  0.97651372    -0.00960
C3157       C  0.76104723  0.87247482  0.03274088    -0.02080
C3158       C  0.76284802  0.86421724  0.98522005     0.07600
C3159       C  0.77983141  0.83926590  0.97229129    -0.02200
C3160       C  0.79588249  0.82332986  0.00590001    -0.02200
C3161       C  0.79094223  0.82732259  0.05621863     0.07730
C3162       C  0.77447364  0.85459918  0.06771837    -0.02390
Br3163     Br  0.76684982  0.86796220  0.13100843    -0.00940
Br3164     Br  0.73801176  0.90781403  0.04984409    -0.01010
Br3165     Br  0.82827196  0.80504194  0.97639526    -0.00970
Br3166     Br  0.78048351  0.82655074  0.90711323    -0.00960
C3167       C  0.78273628  0.51122071  0.73210687    -0.02080
C3168       C  0.76251910  0.98967909  0.72095111     0.07600
C3169       C  0.75343036  0.98900653  0.67395447    -0.02200
C3170       C  0.76400049  0.50974875  0.63907291    -0.02200
C3171       C  0.78580127  0.53110090  0.64914496     0.07730
C3172       C  0.79058886  0.53443207  0.69935389    -0.02390
Br3173     Br  0.79544489  0.57404327  0.73145565    -0.00940
Br3174     Br  0.79695296  0.01198691  0.79510000    -0.01010
Br3175     Br  0.74776749  0.50663234  0.57811686    -0.00970
Br3176     Br  0.72762382  0.95701388  0.65623754    -0.00960
C3177       C  0.83846259  0.62120491  0.67781808    -0.02080
C3178       C  0.85902425  0.60516065  0.70186493     0.07600
C3179       C  0.86357621  0.57386747  0.69145694    -0.02200
C3180       C  0.84577937  0.55711413  0.66232654    -0.02200
C3181       C  0.82356780  0.57221933  0.63739166     0.07730
C3182       C  0.82204648  0.60583631  0.64376605    -0.02390
Br3183     Br  0.79911729  0.63342421  0.60849424    -0.00940
Br3184     Br  0.83101479  0.66371207  0.69681831    -0.01010
Br3185     Br  0.85194336  0.51254219  0.66530054    -0.00970
Br3186     Br  0.89455708  0.55364026  0.71928164    -0.00960
C3187       C  0.99603324  0.57773417  0.01008421    -0.02080
C3188       C  0.00012534  0.60986385  0.00899600     0.07600
C3189       C  0.01888626  0.62341290  0.03875955    -0.02200
C3190       C  0.53127920  0.60520676  0.07350517    -0.02200
C3191       C  0.53267836  0.57140220  0.06928032     0.07730
C3192       C  0.51297778  0.55832982  0.03718463    -0.02390
Br3193     Br  0.50176768  0.51553325  0.03482967    -0.00940
Br3194     Br  0.96496243  0.56129527  0.97603217    -0.01010
Br3195     Br  0.53621305  0.62872129  0.13079840    -0.00970
Br3196     Br  0.02797071  0.66689879  0.03108310    -0.00960
C3197       C  0.87151543  0.76185520  0.04935984    -0.02080
C3198       C  0.86010151  0.73819241  0.02242289     0.07600
C3199       C  0.83174783  0.73353044  0.02380731    -0.02200
C3200       C  0.81424692  0.75481234  0.04758282    -0.02200
C3201       C  0.82499773  0.78063841  0.07449193     0.07730
C3202       C  0.85482089  0.78079008  0.07868420    -0.02390
Br3203     Br  0.87638549  0.79932842  0.12792897    -0.00940
Br3204     Br  0.91053618  0.76986117  0.04268403    -0.01010
Br3205     Br  0.77587066  0.74912841  0.03463833    -0.00970
Br3206     Br  0.81684043  0.69933064  0.98758947    -0.00960
C3207       C  0.51295965  0.72842043  0.67401111    -0.02080
C3208       C  0.98817250  0.74116502  0.69033676     0.07600
C3209       C  0.98165260  0.77175996  0.67867399    -0.02200
C3210       C  0.00181814  0.79143001  0.65904884    -0.02200
C3211       C  0.52694804  0.77908496  0.63808847     0.07730
C3212       C  0.53025605  0.74552570  0.64300052    -0.02390
Br3213     Br  0.55611703  0.71973355  0.60953155    -0.00940
Br3214     Br  0.52498696  0.68919989  0.70029999    -0.01010
Br3215     Br  0.99450405  0.83494330  0.67116300    -0.00970
Br3216     Br  0.94536236  0.78726869  0.69486668    -0.00960
C3217       C  0.81762851  0.82745235  0.18160305    -0.02080
C3218       C  0.81990240  0.82943494  0.13153272     0.07600
C3219       C  0.83829432  0.85390809  0.11528863    -0.02200
C3220       C  0.85491066  0.87113193  0.14714838    -0.02200
C3221       C  0.85722259  0.86147247  0.19421164     0.07730
C3222       C  0.83899795  0.83785072  0.20979682    -0.02390
Br3223     Br  0.84361457  0.81542547  0.26789880    -0.00940
Br3224     Br  0.78404751  0.82074187  0.21760010    -0.01010
Br3225     Br  0.87519789  0.90721885  0.12537040    -0.00970
Br3226     Br  0.84483575  0.86344803  0.05023003    -0.00960
C3227       C  0.54587911  0.50750122  0.16687192    -0.02080
C3228       C  0.53367817  0.52976510  0.13561241     0.07600
C3229       C  0.00430746  0.53332481  0.14087185    -0.02200
C3230       C  0.98855304  0.51000734  0.16286021    -0.02200
C3231       C  0.00080300  0.98953475  0.19433759     0.07730
C3232       C  0.52945831  0.99024713  0.19869744    -0.02390
Br3233     Br  0.54612150  0.96924799  0.25058575    -0.00940
Br3234     Br  0.58483674  0.49918275  0.16781780    -0.01010
Br3235     Br  0.94939382  0.50945786  0.15503417    -0.00970
Br3236     Br  0.98429234  0.57238568  0.13502203    -0.00960
C3237       C  0.01047988  0.87366493  0.54603012    -0.02080
C3238       C  0.99149593  0.85797738  0.51871484     0.07600
C3239       C  0.99040806  0.82537201  0.52144080    -0.02200
C3240       C  0.00852989  0.80816816  0.55007258    -0.02200
C3241       C  0.52802192  0.82358102  0.58042384     0.07730
C3242       C  0.52623816  0.85768709  0.57998063    -0.02390
Br3243     Br  0.53781933  0.88613790  0.62862914    -0.00940
Br3244     Br  0.01621486  0.91746303  0.53322344    -0.01010
Br3245     Br  0.00643296  0.76308724  0.54192968    -0.00970
Br3246     Br  0.96485425  0.80420959  0.48174736    -0.00960
C3247       C  0.82483363  0.49717944  0.57034991    -0.02080
C3248       C  0.82319305  0.53102776  0.57487288     0.07600
C3249       C  0.84219777  0.54792380  0.54439227    -0.02200
C3250       C  0.86054972  0.53241595  0.51305014    -0.02200
C3251       C  0.85985113  0.99999359  0.50754681     0.07730
C3252       C  0.84150151  0.98273842  0.53518372    -0.02390
Br3253     Br  0.83770922  0.93870830  0.52094169    -0.00940
Br3254     Br  0.80850581  0.96711711  0.61211135    -0.01010
Br3255     Br  0.88694464  0.55563748  0.47574497    -0.00970
Br3256     Br  0.84317481  0.59297776  0.53929097    -0.00960
C3257       C  0.88447034  0.94765220  0.89932503    -0.02080
C3258       C  0.91388090  0.94766699  0.89356520     0.07600
C3259       C  0.92836890  0.96792443  0.92594561    -0.02200
C3260       C  0.91515882  0.98123696  0.96565018    -0.02200
C3261       C  0.88676804  0.98162974  0.96973909     0.07730
C3262       C  0.87148874  0.96598835  0.93466282    -0.02390
Br3263     Br  0.83172353  0.96778092  0.93467018    -0.00940
Br3264     Br  0.85917053  0.92260610  0.86349412    -0.01010
Br3265     Br  0.93591947  0.49241036  0.02010298    -0.00970
Br3266     Br  0.96693923  0.97741894  0.92197603    -0.00960
C3267       C  0.97965003  0.94163879  0.81899568    -0.02080
C3268       C  0.95108238  0.94850179  0.82920947     0.07600
C3269       C  0.94214132  0.97901696  0.81316474    -0.02200
C3270       C  0.96016104  0.49849991  0.78730963    -0.02200
C3271       C  0.98441904  0.48646110  0.76830093     0.07730
C3272       C  0.49331195  0.95699740  0.78219541    -0.02390
Br3273     Br  0.52614991  0.93908978  0.75451904    -0.00940
Br3274     Br  0.00628667  0.92665661  0.86347696    -0.01010
Br3275     Br  0.95194232  0.54164398  0.77550124    -0.00970
Br3276     Br  0.90486188  0.49451756  0.81808806    -0.00960
C3277       C  0.90272714  0.87368724  0.83141738    -0.02080
C3278       C  0.91223372  0.90545974  0.82183392     0.07600
C3279       C  0.90263461  0.91742996  0.77774539    -0.02200
C3280       C  0.87987055  0.90381529  0.75564459    -0.02200
C3281       C  0.87376188  0.87206726  0.76251760     0.07730
C3282       C  0.88805876  0.85657514  0.79749967    -0.02390
Br3283     Br  0.89108140  0.81178399  0.79431618    -0.00940
Br3284     Br  0.90412812  0.85168210  0.89025879    -0.01010
Br3285     Br  0.85784674  0.92925528  0.71519029    -0.00970
Br3286     Br  0.92522576  0.93869775  0.73217689    -0.00960
C3287       C  0.96422212  0.87701165  0.86833727    -0.02080
C3288       C  0.94734039  0.90161441  0.88780701     0.07600
C3289       C  0.94652832  0.90300892  0.93763453    -0.02200
C3290       C  0.96895756  0.89356978  0.96236748    -0.02200
C3291       C  0.98478950  0.86834384  0.94557687     0.07730
C3292       C  0.98129846  0.85901672  0.89820414    -0.02390
Br3293     Br  0.50065240  0.82345669  0.87247798    -0.00940
Br3294     Br  0.96632558  0.86841180  0.80159262    -0.01010
Br3295     Br  0.97656106  0.91777354  0.01785486    -0.00970
Br3296     Br  0.91346286  0.90332008  0.97627338    -0.00960
loop_ 
_geom_bond_atom_site_label_1 
_geom_bond_atom_site_label_2 
_geom_bond_distance 
_geom_bond_site_symmetry_2 
_ccdc_geom_bond_type 
C1          C786   1.611       .  S
C1          C796   1.606       .  S
C1          C806   1.622       .  S
C1          C816   1.577       .  S
O2          Zr14   2.336       .  S
O2            C4   1.267       .  A
O3          Zr40   2.470       .  S
O3            C4   1.300       .  A
C4         C2668   1.442       .  S
O5          Zr17   2.434       .  S
O5            C7   1.290       .  A
O6          Zr41   2.406       .  S
O6            C7   1.282       .  A
C7         C1170   1.441       .  S
O8          Zr17   2.475       .  S
O8           C10   1.294       .  A
O9          Zr40   2.442       .  S
O9           C10   1.292       .  A
C10         C779   1.500       .  S
O11         Zr14   2.416       .  S
O11          C13   1.282       .  A
O12         Zr41   2.451       .  S
O12          C13   1.291       .  A
C13         C759   1.486       .  S
Zr14         O20   2.381       .  S
Zr14         O21   2.332       .  S
Zr14         O44   2.334       .  S
Zr14         O46   2.376       .  S
Zr14        O839   2.437       .  S
Zr14       O1664   2.437       .  S
O15        Zr838   2.437   1_545  S
O15          H58   0.990       .  S
O16       Zr1662   2.437   1_455  S
O16          H57   0.990       .  S
O16          H61   0.990       .  S
Zr17         O21   2.380       .  S
Zr17         O20   2.360       .  S
Zr17         O45   2.335       .  S
Zr17         O47   2.369       .  S
Zr17         O19   2.435       .  S
Zr17        O842   2.396       .  S
O18        Zr841   2.396   1_545  S
O18          H59   0.987       .  S
O18          H62   0.990       .  S
O19          H52   0.990       .  S
O20         Zr40   2.390       .  S
O21         Zr41   2.393       .  S
O21          H48   0.966       .  S
O22         Zr34   2.357       .  S
O22          C24   1.269       .  A
O23         Zr41   2.412       .  S
O23          C24   1.290       .  A
C24        C1912   1.428       .  S
O25         Zr37   2.334       .  S
O25          C27   1.266       .  A
O26         Zr40   2.472       .  S
O26          C27   1.302       .  A
C27         C446   1.440       .  S
O28         Zr37   2.409       .  S
O28          C30   1.278       .  A
O29         Zr41   2.489       .  S
O29          C30   1.297       .  A
C30         C749   1.516       .  S
O31         Zr34   2.424       .  S
O31          C33   1.282       .  A
O32         Zr40   2.482       .  S
O32          C33   1.298       .  A
C33         C766   1.498       .  S
Zr34         O42   2.392       .  S
Zr34         O43   2.328       .  S
Zr34         O46   2.339       .  S
Zr34         O44   2.383       .  S
Zr34         O35   2.416       .  S
Zr34       O1684   2.436       .  S
O35          H55   0.984       .  S
O35          H60   0.988       .  S
O36       Zr1682   2.436   1_455  S
O36          H56   0.991       .  S
Zr37         O43   2.388       .  S
Zr37         O42   2.356       .  S
Zr37         O47   2.335       .  S
Zr37         O45   2.369       .  S
Zr37         O38   2.434       .  S
Zr37         O39   2.438       .  S
O38          H54   0.990       .  S
O39          H53   0.990       .  S
O39          H63   0.990       .  S
Zr40         O43   2.375       .  S
Zr40         O45   2.392       .  S
Zr40         O46   2.378       .  S
Zr41         O42   2.386       .  S
Zr41         O44   2.378       .  S
Zr41         O47   2.384       .  S
O42          H50   0.966       .  S
O45          H49   0.965       .  S
O46          H51   0.965       .  S
O64         Zr76   2.364       .  S
O64          C66   1.273       .  A
O65        Zr102   2.401       .  S
O65          C66   1.286       .  A
C66        C1932   1.422       .  S
O67         Zr79   2.367       .  S
O67          C69   1.275       .  A
O68        Zr103   2.419       .  S
O68          C69   1.289       .  A
C69         C443   1.432       .  S
O70         Zr79   2.403       .  S
O70          C72   1.279       .  A
O71        Zr102   2.448       .  S
O71          C72   1.290       .  A
C72         C726   1.477   1_556  S
O73         Zr76   2.435       .  S
O73          C75   1.285       .  A
O74        Zr103   2.440       .  S
O74          C75   1.288       .  A
C75         C736   1.481       .  S
Zr76         O82   2.381       .  S
Zr76         O83   2.333       .  S
Zr76        O106   2.335       .  S
Zr76        O108   2.381       .  S
Zr76         O77   2.432       .  S
Zr76       O1726   2.431       .  S
O77         H120   0.990       .  S
O78       Zr1724   2.431   1_455  S
O78         H119   0.989       .  S
O78         H123   0.989       .  S
Zr79         O83   2.391       .  S
Zr79         O82   2.354       .  S
Zr79        O107   2.345       .  S
Zr79        O109   2.366       .  S
Zr79         O80   2.429       .  S
Zr79         O81   2.435       .  S
O80         H121   0.988       .  S
O80         H124   0.989       .  S
O81         H114   0.989       .  S
O82        Zr102   2.381       .  S
O83        Zr103   2.386       .  S
O83         H110   0.966       .  S
O84         Zr96   2.302       .  S
O84          C86   1.262       .  A
O85        Zr103   2.423       .  S
O85          C86   1.289       .  A
C86        C1841   1.412       .  S
O87         Zr99   2.424       .  S
O87          C89   1.287       .  A
O88        Zr102   2.401       .  S
O88          C89   1.281       .  A
C89         C323   1.435   1_556  S
O90         Zr99   2.487       .  S
O90          C92   1.297       .  A
O91        Zr103   2.419       .  S
O91          C92   1.285       .  A
C92         C706   1.496       .  S
O93         Zr96   2.398       .  S
O93          C95   1.277       .  A
O94        Zr102   2.435       .  S
O94          C95   1.287       .  A
C95         C716   1.464   1_556  S
Zr96        O104   2.383       .  S
Zr96        O105   2.331       .  S
Zr96        O108   2.319       .  S
Zr96        O106   2.369       .  S
Zr96         O97   2.430       .  S
Zr96       O1746   2.435       .  S
O97         H117   0.989       .  S
O97         H122   0.990       .  S
O98       Zr1744   2.435   1_455  S
O98         H118   0.990       .  S
Zr99        O105   2.382       .  S
Zr99        O104   2.349       .  S
Zr99        O109   2.345       .  S
Zr99        O107   2.381       .  S
Zr99        O100   2.432       .  S
Zr99        O101   2.432       .  S
O100        H116   0.990       .  S
O101        H115   0.990       .  S
O101        H125   0.990       .  S
Zr102       O105   2.382       .  S
Zr102       O107   2.391       .  S
Zr102       O108   2.374       .  S
Zr103       O104   2.391       .  S
Zr103       O106   2.362       .  S
Zr103       O109   2.378       .  S
O104        H112   0.966       .  S
O107        H111   0.966       .  S
O108        H113   0.965       .  S
O126       Zr138   2.321       .  S
O126        C128   1.262       .  A
O127       Zr164   2.558       .  S
O127        C128   1.322       .  A
C128       C1150   1.466   1_556  S
O129       Zr141   2.358       .  S
O129        C131   1.272       .  A
O130       Zr165   2.465       .  S
O130        C131   1.294       .  A
C131        C261   1.444       .  S
O132       Zr141   2.427       .  S
O132        C134   1.284       .  A
O133       Zr164   2.490       .  S
O133        C134   1.301       .  A
C134        C686   1.501       .  S
O135       Zr138   2.405       .  S
O135        C137   1.269       .  A
O136       Zr165   2.517       .  S
O136        C137   1.299       .  A
C137        C676   1.537       .  S
Zr138       O144   2.367       .  S
Zr138       O145   2.349       .  S
Zr138       O168   2.343       .  S
Zr138       O170   2.388       .  S
Zr138       O139   2.438   1_556  S
Zr138       O964   2.428       .  S
O139        H182   0.990       .  S
O140       Zr962   2.428   1_545  S
O140        H181   0.985       .  S
O140        H185   0.989       .  S
Zr141       O145   2.382       .  S
Zr141       O144   2.328       .  S
Zr141       O169   2.344       .  S
Zr141       O171   2.373       .  S
Zr141       O142   2.433   1_556  S
Zr141       O143   2.435       .  S
O142        H183   0.990       .  S
O142        H186   0.990       .  S
O143        H176   0.990       .  S
O144       Zr164   2.365       .  S
O145       Zr165   2.398       .  S
O145        H172   0.965       .  S
O146       Zr158   2.379       .  S
O146        C148   1.274       .  A
O147       Zr165   2.456       .  S
O147        C148   1.293       .  A
C148       C1040   1.446       .  S
O149       Zr161   2.372       .  S
O149        C151   1.274       .  A
O150       Zr164   2.515       .  S
O150        C151   1.305       .  A
C151        C466   1.475       .  S
O152       Zr161   2.405       .  S
O152        C154   1.281       .  A
O153       Zr165   2.498       .  S
O153        C154   1.303       .  A
C154        C666   1.497       .  S
O155       Zr158   2.384       .  S
O155        C157   1.277       .  A
O156       Zr164   2.524       .  S
O156        C157   1.308       .  A
C157        C696   1.511       .  S
Zr158       O166   2.355       .  S
Zr158       O167   2.346       .  S
Zr158       O170   2.361       .  S
Zr158       O168   2.361       .  S
Zr158       O159   2.437       .  S
Zr158       O984   2.429       .  S
O159        H179   0.990       .  S
O159        H184   0.990       .  S
O160       Zr982   2.429   1_545  S
O160        H180   0.990       .  S
Zr161       O167   2.358       .  S
Zr161       O166   2.349       .  S
Zr161       O171   2.350       .  S
Zr161       O169   2.370       .  S
Zr161       O162   2.432       .  S
Zr161       O163   2.427       .  S
O162        H178   0.990       .  S
O163        H177   0.990       .  S
O163        H187   0.990       .  S
Zr164       O167   2.388       .  S
Zr164       O169   2.405       .  S
Zr164       O170   2.403       .  S
Zr165       O166   2.397       .  S
Zr165       O168   2.397       .  S
Zr165       O171   2.410       .  S
O166        H174   0.965       .  S
O169        H173   0.966       .  S
O170        H175   0.965       .  S
C188        C626   1.617       .  S
C188        C639   1.591       .  S
C188        C646   1.634       .  S
C188        C659   1.633       .  S
C189        C586   1.617       .  S
C189        C599   1.641       .  S
C189        C609   1.626       .  S
C189        C619   1.664       .  S
C190        C546   1.599       .  S
C190        C556   1.624       .  S
C190        C569   1.637       .  S
C190        C579   1.630       .  S
O191      Zr1851   2.326       .  S
O191       C1841   1.265       .  A
O192       Zr229   2.415       .  S
O192        C193   1.290   1_455  A
C193       O1839   1.265       .  A
C193       C1734   1.412       .  S
O194      Zr1854   2.340   1_565  S
O194       C1844   1.268       .  A
O195       Zr230   2.470       .  S
O195        C196   1.301   1_445  A
C196       O1842   1.268       .  A
C196       C2476   1.442       .  S
O197      Zr1854   2.429   1_565  S
O197       C1847   1.283   1_565  A
O198       Zr229   2.438       .  S
O198        C199   1.288   1_455  A
C199       O1845   1.283   1_545  A
C199       C2447   1.475   1_545  S
O200      Zr1851   2.413       .  S
O200       C1850   1.277       .  A
O201       Zr230   2.501       .  S
O201        C202   1.301       .  A
C202       O1848   1.277       .  A
C202       C2214   1.530   1_455  S
Zr203      O1839   2.326   1_455  S
Zr203      O1848   2.413       .  S
Zr203       O209   2.377       .  S
Zr203       O210   2.323       .  S
Zr203       O233   2.337       .  S
Zr203       O235   2.395       .  S
Zr203       O205   2.414       .  S
Zr203      O1852   2.436   1_455  S
O204      Zr1851   2.436       .  S
O204        H247   0.990       .  S
O205        H246   0.985       .  S
O205       H1898   0.990       .  S
Zr206      O1842   2.340   1_445  S
Zr206      O1845   2.429   1_445  S
Zr206       O210   2.383       .  S
Zr206       O209   2.329       .  S
Zr206       O234   2.333       .  S
Zr206       O236   2.394       .  S
Zr206      O1855   2.437   1_455  S
Zr206      O1032   2.428   1_445  S
O207      Zr1854   2.437       .  S
O207        H248   0.990       .  S
O207        H251   0.990       .  S
O208      Zr1030   2.428   1_655  S
O208        H241   0.989   1_655  S
O209       Zr229   2.369       .  S
O210       Zr230   2.376       .  S
O210       H1885   0.966   1_455  S
O211       Zr223   2.343       .  S
O211        C213   1.268       .  A
O212       Zr230   2.487       .  S
O212        C213   1.304       .  A
C213        C387   1.452       .  S
O214       Zr226   2.456   1_565  S
O214        C216   1.294       .  A
O215       Zr229   2.402       .  S
O215        C216   1.281   1_545  A
C216        C972   1.446       .  S
O217       Zr226   2.489   1_565  S
O217        C219   1.297       .  A
O218       Zr230   2.442       .  S
O218        C219   1.291   1_545  A
C219       C1430   1.502       .  S
O220       Zr223   2.416       .  S
O220        C222   1.282       .  A
O221       Zr229   2.473       .  S
O221        C222   1.295       .  A
C222        C629   1.500       .  S
Zr223       O231   2.374       .  S
Zr223       O232   2.343       .  S
Zr223       O235   2.345       .  S
Zr223       O233   2.385       .  S
Zr223       O224   2.435       .  S
Zr223       O225   2.432       .  S
O224        H244   0.990       .  S
O224        H249   0.990       .  S
O225        H245   0.990       .  S
Zr226       O232   2.382       .  S
Zr226       O231   2.355       .  S
Zr226       O236   2.362       .  S
Zr226       O234   2.369       .  S
Zr226       O227   2.433   1_545  S
Zr226      O1052   2.428   1_545  S
O227        H243   0.990   1_565  S
O228      Zr1050   2.428       .  S
O228        H242   0.989       .  S
O228        H252   0.990       .  S
Zr229       O232   2.381       .  S
Zr229       O234   2.387       .  S
Zr229       O235   2.383       .  S
Zr230       O231   2.397       .  S
Zr230       O233   2.370       .  S
Zr230       O236   2.405       .  S
O231        H239   0.965       .  S
O234       H1062   0.965   1_545  S
O235        H240   0.966       .  S
H237       O1858   0.966       .  S
H238       O1058   0.965       .  S
H250       O1853   0.990       .  S
O253      Zr1913   2.419       .  S
O253       C1903   1.281   1_554  A
O254       Zr291   2.409   1_556  S
O254        C255   1.279       .  A
C255       O1901   1.281   1_456  A
C255       C2467   1.490   1_455  S
O256       Zr268   2.477       .  S
O256        C258   1.296       .  A
O257       Zr292   2.415       .  S
O257        C258   1.284       .  A
C258        C589   1.491       .  S
O259       Zr268   2.440       .  S
O259        C261   1.291   1_554  A
O260       Zr291   2.399   1_556  S
O260        C261   1.278       .  A
O262      Zr1913   2.321       .  S
O262       C1912   1.266       .  A
O263       Zr292   2.438       .  S
O263        C264   1.292       .  A
C264       O1910   1.266   1_455  A
C264       C1672   1.428   1_455  S
Zr265      O1901   2.419   1_455  S
Zr265      O1910   2.321   1_455  S
Zr265       O271   2.324       .  S
Zr265       O272   2.381       .  S
Zr265       O295   2.369       .  S
Zr265       O297   2.320       .  S
Zr265       O266   2.405       .  S
Zr265      O1915   2.439   1_455  S
O266        H309   0.990       .  S
O267      Zr1913   2.439       .  S
O267        H308   0.990       .  S
O267        H312   0.990       .  S
Zr268       O272   2.356       .  S
Zr268       O271   2.366       .  S
Zr268       O296   2.369       .  S
Zr268       O298   2.350       .  S
Zr268       O269   2.435       .  S
Zr268       O270   2.431       .  S
O269        H310   0.989       .  S
O269        H313   0.990       .  S
O270        H303   0.990       .  S
O271       Zr291   2.373       .  S
O272       Zr292   2.388       .  S
O272        H299   0.966       .  S
O273      Zr1933   2.437       .  S
O273       C1923   1.285       .  A
O274       Zr292   2.441       .  S
O274        C275   1.288       .  A
C275       O1921   1.285       .  A
C275       C2207   1.485   1_455  S
O276       Zr288   2.399       .  S
O276        C278   1.279   1_554  A
O277       Zr291   2.438   1_556  S
O277        C278   1.287       .  A
C278        C636   1.477       .  S
O279       Zr288   2.355       .  S
O279        C281   1.269       .  A
O280       Zr292   2.404       .  S
O280        C281   1.285       .  A
C281        C390   1.426       .  S
O282      Zr1933   2.356       .  S
O282       C1932   1.273   1_554  A
O283       Zr291   2.406   1_556  S
O283        C284   1.287   1_455  A
C284       O1930   1.273   1_556  A
C284       C1714   1.422       .  S
Zr285      O1921   2.437       .  S
Zr285      O1930   2.356   1_455  S
Zr285       O293   2.345       .  S
Zr285       O294   2.400       .  S
Zr285       O297   2.373       .  S
Zr285       O295   2.329       .  S
Zr285       O286   2.429       .  S
Zr285      O1935   2.436   1_455  S
O286        H306   0.989       .  S
O286       H1959   0.990   1_455  S
O287      Zr1933   2.436       .  S
O287        H307   0.990       .  S
Zr288       O294   2.345       .  S
Zr288       O293   2.370       .  S
Zr288       O298   2.374       .  S
Zr288       O296   2.357       .  S
Zr288       O289   2.433       .  S
Zr288       O290   2.436       .  S
O289        H305   0.990       .  S
O290        H304   0.989       .  S
O290        H314   0.990       .  S
Zr291       O294   2.390       .  S
Zr291       O296   2.383       .  S
Zr291       O297   2.382       .  S
Zr292       O293   2.383       .  S
Zr292       O295   2.367       .  S
Zr292       O298   2.377       .  S
O293        H301   0.966       .  S
O296        H300   0.965       .  S
O297       H1950   0.965   1_455  S
H302       O1945   0.965       .  S
H311       O1934   0.990       .  S
O315      Zr1151   2.361       .  S
O315       C1141   1.259       .  A
O316       Zr353   2.534       .  S
O316        C317   1.304   1_545  A
C317       O1139   1.259       .  A
C317       C1613   1.508   1_554  S
O318       Zr330   2.426       .  S
O318        C320   1.284       .  A
O319       Zr354   2.527       .  S
O319        C320   1.308       .  A
C320        C649   1.526   1_554  S
O321       Zr330   2.384       .  S
O321        C323   1.276       .  A
O322       Zr353   2.424       .  S
O322        C323   1.286       .  A
O324      Zr1151   2.298   1_556  S
O324       C1150   1.260   1_556  A
O325       Zr354   2.571       .  S
O325        C326   1.323   1_545  A
C326       O1148   1.260   1_554  A
C326        C952   1.466   1_554  S
Zr327      O1139   2.361   1_545  S
Zr327      O1148   2.298   1_544  S
Zr327       O333   2.332       .  S
Zr327       O334   2.353       .  S
Zr327       O357   2.368       .  S
Zr327       O359   2.344       .  S
Zr327       O328   2.451   1_554  S
Zr327      O1153   2.446   1_545  S
O328        H371   0.991       .  S
O329      Zr1151   2.446       .  S
O329        H370   0.989       .  S
O329        H374   0.989       .  S
Zr330       O334   2.358       .  S
Zr330       O333   2.374       .  S
Zr330       O358   2.353       .  S
Zr330       O360   2.340       .  S
Zr330       O331   2.432   1_554  S
Zr330       O332   2.431       .  S
O331        H372   0.989       .  S
O331        H375   0.989       .  S
O332        H365   0.990       .  S
O333       Zr353   2.363       .  S
O334       Zr354   2.374       .  S
O334        H361   0.964       .  S
O335      Zr1171   2.403       .  S
O335       C1161   1.280       .  A
O336       Zr354   2.536       .  S
O336        C337   1.311   1_545  A
C337       O1159   1.280       .  A
C337       C1420   1.514       .  S
O338       Zr350   2.410       .  S
O338        C340   1.282       .  A
O339       Zr353   2.477       .  S
O339        C340   1.297       .  A
C340        C549   1.486       .  S
O341       Zr350   2.374       .  S
O341        C343   1.276       .  A
O342       Zr354   2.509       .  S
O342        C343   1.305       .  A
C343        C407   1.469       .  S
O344      Zr1171   2.372       .  S
O344       C1170   1.274       .  A
O345       Zr353   2.443       .  S
O345        C346   1.290   1_545  A
C346       O1168   1.274       .  A
C346        C831   1.441       .  S
Zr347      O1159   2.403   1_545  S
Zr347      O1168   2.372   1_545  S
Zr347       O355   2.348       .  S
Zr347       O356   2.365       .  S
Zr347       O359   2.350       .  S
Zr347       O357   2.357       .  S
Zr347       O348   2.437   1_545  S
Zr347      O1173   2.435   1_545  S
O348        H368   0.989   1_565  S
O348       H1197   0.989       .  S
O349      Zr1171   2.435       .  S
O349        H369   0.990       .  S
Zr350       O356   2.346       .  S
Zr350       O355   2.356       .  S
Zr350       O360   2.372       .  S
Zr350       O358   2.342       .  S
Zr350       O351   2.434       .  S
Zr350       O352   2.427       .  S
O351        H367   0.990       .  S
O352        H366   0.990       .  S
O352        H376   0.989       .  S
Zr353       O356   2.395       .  S
Zr353       O358   2.408       .  S
Zr353       O359   2.391       .  S
Zr354       O355   2.414       .  S
Zr354       O357   2.394       .  S
Zr354       O360   2.418       .  S
O355        H363   0.964       .  S
O358        H362   0.966       .  S
O359       H1188   0.966   1_545  S
H364       O1183   0.966       .  S
H373       O1172   0.989       .  S
C377        C536   1.641       .  S
C377        C689   1.628       .  S
C377        C729   1.607       .  S
C377        C746   1.612       .  S
C378        C526   1.646       .  S
C378        C669   1.614       .  S
C378        C739   1.611       .  S
C378        C769   1.623       .  S
O379       Zr391   2.453       .  S
O379        C381   1.288       .  A
O380       Zr417   2.521       .  S
O380        C381   1.304       .  A
C381        C529   1.548       .  S
O382       Zr394   2.434       .  S
O382        C384   1.283       .  A
O383       Zr418   2.476       .  S
O383        C384   1.293       .  A
C384        C509   1.527       .  S
O385       Zr394   2.344       .  S
O385        C387   1.269       .  A
O386       Zr417   2.488       .  S
O386        C387   1.305       .  A
O388       Zr391   2.356       .  S
O388        C390   1.273       .  A
O389       Zr418   2.417       .  S
O389        C390   1.290       .  A
Zr391       O397   2.332       .  S
Zr391       O398   2.385       .  S
Zr391       O421   2.396       .  S
Zr391       O423   2.346       .  S
Zr391       O392   2.433       .  S
Zr391       O393   2.432       .  S
O392        H435   0.990       .  S
O393        H434   0.990       .  S
O393        H438   0.990       .  S
Zr394       O398   2.328       .  S
Zr394       O397   2.383       .  S
Zr394       O422   2.384       .  S
Zr394       O424   2.332       .  S
Zr394       O395   2.432       .  S
Zr394       O396   2.418       .  S
O395        H436   0.990       .  S
O395        H439   0.990       .  S
O396        H429   0.990       .  S
O397       Zr417   2.381       .  S
O398       Zr418   2.391       .  S
O398        H425   0.966       .  S
O399       Zr411   2.456       .  S
O399        C401   1.289       .  A
O400       Zr418   2.487       .  S
O400        C401   1.298       .  A
C401        C539   1.516       .  S
O402       Zr414   2.498       .  S
O402        C404   1.299       .  A
O403       Zr417   2.480       .  S
O403        C404   1.296       .  A
C404        C516   1.553       .  S
O405       Zr414   2.463       .  S
O405        C407   1.295       .  A
O406       Zr418   2.434       .  S
O406        C407   1.287       .  A
O408       Zr411   2.384       .  S
O408        C410   1.276       .  A
O409       Zr417   2.488       .  S
O409        C410   1.303       .  A
C410        C463   1.471       .  S
Zr411       O419   2.362       .  S
Zr411       O420   2.383       .  S
Zr411       O423   2.391       .  S
Zr411       O421   2.348       .  S
Zr411       O412   2.427       .  S
Zr411       O413   2.430       .  S
O412        H432   0.989       .  S
O412        H437   0.990       .  S
O413        H433   0.990       .  S
Zr414       O420   2.359       .  S
Zr414       O419   2.390       .  S
Zr414       O424   2.369       .  S
Zr414       O422   2.358       .  S
Zr414       O415   2.433       .  S
Zr414       O416   2.430       .  S
O415        H431   0.990       .  S
O416        H430   0.989       .  S
O416        H440   0.989       .  S
Zr417       O420   2.397       .  S
Zr417       O422   2.404       .  S
Zr417       O423   2.393       .  S
Zr418       O419   2.397       .  S
Zr418       O421   2.399       .  S
Zr418       O424   2.381       .  S
O419        H427   0.966       .  S
O422        H426   0.966       .  S
O423        H428   0.966       .  S
O441       Zr453   2.375       .  S
O441        C443   1.276       .  A
O442       Zr479   2.411       .  S
O442        C443   1.288       .  A
O444       Zr456   2.329       .  S
O444        C446   1.266       .  A
O445       Zr480   2.472       .  S
O445        C446   1.301       .  A
O447       Zr456   2.413       .  S
O447        C449   1.280       .  A
O448       Zr479   2.491       .  S
O448        C449   1.300       .  A
C449        C809   1.502       .  S
O450       Zr453   2.452       .  S
O450        C452   1.289       .  A
O451       Zr480   2.518       .  S
O451        C452   1.305       .  A
C452        C576   1.535       .  S
Zr453       O459   2.386       .  S
Zr453       O460   2.337       .  S
Zr453       O483   2.349       .  S
Zr453       O485   2.390       .  S
Zr453       O454   2.432       .  S
Zr453       O455   2.414       .  S
O454        H497   0.990       .  S
O455        H496   0.987       .  S
O455        H500   0.990       .  S
Zr456       O460   2.376       .  S
Zr456       O459   2.331       .  S
Zr456       O484   2.338       .  S
Zr456       O486   2.387       .  S
Zr456       O457   2.437       .  S
Zr456       O458   2.422       .  S
O457        H498   0.990       .  S
O457        H501   0.990       .  S
O458        H491   0.988       .  S
O459       Zr479   2.387       .  S
O460       Zr480   2.391       .  S
O460        H487   0.965       .  S
O461       Zr473   2.389       .  S
O461        C463   1.277       .  A
O462       Zr480   2.487       .  S
O462        C463   1.304       .  A
O464       Zr476   2.466       .  S
O464        C466   1.297       .  A
O465       Zr479   2.447       .  S
O465        C466   1.289       .  A
O467       Zr476   2.503       .  S
O467        C469   1.301       .  A
O468       Zr480   2.485       .  S
O468        C469   1.297       .  A
C469        C616   1.556       .  S
O470       Zr473   2.438       .  S
O470        C472   1.287       .  A
O471       Zr479   2.493       .  S
O471        C472   1.300       .  A
C472        C656   1.516       .  S
Zr473       O481   2.375       .  S
Zr473       O482   2.359       .  S
Zr473       O485   2.353       .  S
Zr473       O483   2.390       .  S
Zr473       O474   2.432       .  S
Zr473       O475   2.434       .  S
O474        H494   0.990       .  S
O474        H499   0.990       .  S
O475        H495   0.990       .  S
Zr476       O482   2.383       .  S
Zr476       O481   2.358       .  S
Zr476       O486   2.359       .  S
Zr476       O484   2.372       .  S
Zr476       O477   2.434       .  S
Zr476       O478   2.415       .  S
O477        H493   0.990       .  S
O478        H492   0.990       .  S
O478        H502   0.985       .  S
Zr479       O482   2.394       .  S
Zr479       O484   2.380       .  S
Zr479       O485   2.404       .  S
Zr480       O481   2.402       .  S
Zr480       O483   2.388       .  S
Zr480       O486   2.396       .  S
O481        H489   0.966       .  S
O484        H488   0.965       .  S
O485        H490   0.966       .  S
C503        C519   1.651       .  S
C503        C699   1.636       .  S
C503        C709   1.615       .  S
C503        C776   1.625       .  S
C504        C506   1.619       .  S
C504        C679   1.639       .  S
C504        C719   1.603       .  S
C504        C756   1.594       .  S
C505        C506   1.434       .  A
C505        C510   1.393       .  A
C505       Br512   1.941       .  S
C506        C507   1.454       .  A
C507        C508   1.440       .  A
C507       Br514   1.944       .  S
C508        C509   1.422       .  A
C508       Br513   1.930       .  S
C509        C510   1.413       .  A
C510       Br511   1.935       .  S
C515        C516   1.415       .  A
C515        C520   1.412       .  A
C515       Br522   1.937       .  S
C516        C517   1.430       .  A
C517        C518   1.448       .  A
C517       Br524   1.934       .  S
C518        C519   1.449       .  A
C518       Br523   1.928       .  S
C519        C520   1.451       .  A
C520       Br521   1.946       .  S
C525        C526   1.441       .  A
C525        C530   1.408       .  A
C525       Br532   1.941       .  S
C526        C527   1.460       .  A
C527        C528   1.449       .  A
C527       Br534   1.933       .  S
C528        C529   1.422       .  A
C528       Br533   1.928       .  S
C529        C530   1.415       .  A
C530       Br531   1.930       .  S
C535        C536   1.458       .  A
C535        C540   1.424       .  A
C535       Br542   1.930       .  S
C536        C537   1.462       .  A
C537        C538   1.433       .  A
C537       Br544   1.939       .  S
C538        C539   1.403       .  A
C538       Br543   1.933       .  S
C539        C540   1.400       .  A
C540       Br541   1.939       .  S
C545        C546   1.436       .  A
C545        C550   1.414       .  A
C545       Br552   1.918       .  S
C546        C547   1.446       .  A
C547        C548   1.419       .  A
C547       Br554   1.917       .  S
C548        C549   1.402       .  A
C548       Br553   1.939       .  S
C549        C550   1.394       .  A
C550       Br551   1.926       .  S
C555        C556   1.436       .  A
C555        C560   1.398       .  A
C555       Br562   1.939       .  S
C556        C557   1.456       .  A
C557        C558   1.427       .  A
C557       Br564   1.940       .  S
C558        C559   1.400       .  A
C558       Br563   1.923       .  S
C559       C1923   1.485       .  S
C559        C560   1.390       .  A
C560      Br2209   1.931       .  S
Br561      C2208   1.931   1_455  S
C565        C566   1.425       .  A
C565        C570   1.412       .  A
C565       Br572   1.941       .  S
C566       C1850   1.530       .  S
C566        C567   1.411       .  A
C567        C568   1.428       .  A
C567      Br2222   1.936       .  S
C568        C569   1.452       .  A
C568       Br573   1.932       .  S
C569        C570   1.441       .  A
C570       Br571   1.951       .  S
Br574      C2215   1.936   1_455  S
C575        C576   1.407       .  A
C575        C580   1.435       .  A
C575       Br582   1.932       .  S
C576        C577   1.415       .  A
C577        C578   1.429       .  A
C577       Br584   1.927       .  S
C578        C579   1.451       .  A
C578       Br583   1.952       .  S
C579        C580   1.459       .  A
C580       Br581   1.941       .  S
C585        C586   1.460       .  A
C585        C590   1.412       .  A
C585       Br592   1.936       .  S
C586        C587   1.452       .  A
C587        C588   1.426       .  A
C587       Br594   1.931       .  S
C588        C589   1.401       .  A
C588       Br593   1.927       .  S
C589        C590   1.389       .  A
C590       Br591   1.932       .  S
C595        C596   1.421       .  A
C595        C600   1.432       .  A
C595       Br602   1.933       .  S
C596       C1161   1.514       .  S
C596        C597   1.391       .  A
C597        C598   1.416       .  A
C597       Br604   1.939       .  S
C598        C599   1.467       .  A
C598       Br603   1.945       .  S
C599        C600   1.440       .  A
C600       Br601   1.933       .  S
C605        C606   1.395       .  A
C605        C610   1.420       .  A
C605       Br612   1.938       .  S
C606       C1043   1.502       .  S
C606       C1431   1.402       .  A
C607       C1430   1.402       .  A
C607       C1432   1.426       .  A
C607       Br614   1.935   1_565  S
C608        C609   1.458       .  A
C608       C1431   1.426       .  A
C608      Br1437   1.926       .  S
C609        C610   1.459       .  A
C610       Br611   1.923       .  S
Br613      C1432   1.926   1_545  S
C615        C616   1.409       .  A
C615        C620   1.433       .  A
C615       Br622   1.948       .  S
C616        C617   1.420       .  A
C617        C618   1.444       .  A
C617       Br624   1.937       .  S
C618        C619   1.452       .  A
C618       Br623   1.920       .  S
C619        C620   1.472       .  A
C620       Br621   1.944       .  S
C625        C626   1.451       .  A
C625        C630   1.424       .  A
C625       Br632   1.917       .  S
C626        C627   1.452       .  A
C627        C628   1.420       .  A
C627       Br634   1.928       .  S
C628        C629   1.405       .  A
C628       Br633   1.945       .  S
C629        C630   1.401       .  A
C630       Br631   1.938       .  S
C635        C636   1.403       .  A
C635        C640   1.410       .  A
C635       Br642   1.940       .  S
C636        C637   1.389       .  A
C637        C638   1.403       .  A
C637       Br644   1.935       .  S
C638        C639   1.459       .  A
C638       Br643   1.950       .  S
C639        C640   1.445       .  A
C640       Br641   1.938       .  S
C645        C646   1.466       .  A
C645        C650   1.436       .  A
C645       Br652   1.923       .  S
C646        C647   1.443       .  A
C647        C648   1.407       .  A
C647       Br654   1.937       .  S
C648        C649   1.409       .  A
C648       Br653   1.927       .  S
C649        C650   1.404       .  A
C650       Br651   1.928   1_556  S
C655        C656   1.410       .  A
C655        C660   1.426       .  A
C655       Br662   1.936       .  S
C656        C657   1.401       .  A
C657        C658   1.426       .  A
C657       Br664   1.943       .  S
C658        C659   1.466       .  A
C658       Br663   1.946       .  S
C659        C660   1.449       .  A
C660       Br661   1.935       .  S
C665        C666   1.411       .  A
C665        C670   1.422       .  A
C665       Br672   1.937       .  S
C666        C667   1.393       .  A
C667        C668   1.418       .  A
C667       Br674   1.942       .  S
C668        C669   1.463       .  A
C668       Br673   1.943       .  S
C669        C670   1.442       .  A
C670       Br671   1.934       .  S
C675        C676   1.413   1_554  A
C675       C1504   1.426       .  A
C675       Br682   1.937   1_554  S
C676       C1501   1.432   1_556  A
C677        C678   1.416       .  A
C677       C1500   1.432   1_554  A
C677       Br684   1.930   1_554  S
C678        C679   1.418       .  A
C678       Br683   1.938       .  S
C679        C680   1.439   1_545  A
C680       C1499   1.426       .  A
C680       Br681   1.923       .  S
C685        C686   1.404   1_554  A
C685        C690   1.425       .  A
C685       Br692   1.940       .  S
C686        C687   1.396       .  A
C687        C688   1.421   1_556  A
C687       Br694   1.940       .  S
C688        C689   1.465       .  A
C688       Br693   1.944   1_554  S
C689        C690   1.450       .  A
C690       Br691   1.927       .  S
C695        C700   1.416       .  A
C695       C1520   1.393   1_545  A
C695      Br1526   1.938       .  S
C696        C697   1.420       .  A
C696       C1519   1.393       .  A
C697       C1522   1.429       .  A
C697       Br704   1.935       .  S
C698        C699   1.437       .  A
C698       C1521   1.429   1_545  A
C698       Br703   1.928       .  S
C699        C700   1.464       .  A
C700       Br701   1.943       .  S
Br702      C1519   1.938       .  S
C705        C706   1.402       .  A
C705        C710   1.430       .  A
C705       Br712   1.929       .  S
C706        C707   1.388       .  A
C707        C708   1.409       .  A
C707       Br714   1.922       .  S
C708        C709   1.456       .  A
C708       Br713   1.932       .  S
C709        C710   1.451       .  A
C710       Br711   1.920       .  S
C715        C716   1.390       .  A
C715       C2368   1.410       .  A
C715       Br722   1.946   1_554  S
C716        C717   1.386       .  A
C717       C2366   1.405       .  A
C717       Br724   1.927       .  S
C718        C719   1.453       .  A
C718       C2365   1.405       .  A
C718       Br723   1.939       .  S
C719        C720   1.451       .  A
C720       C2363   1.410   1_455  A
C720       Br721   1.915       .  S
C725        C726   1.393       .  A
C725        C730   1.414       .  A
C725       Br732   1.944       .  S
C726        C727   1.400       .  A
C727        C728   1.414       .  A
C727       Br734   1.941   1_554  S
C728        C729   1.449       .  A
C728       Br733   1.931       .  S
C729        C730   1.463       .  A
C730       Br731   1.939       .  S
C735        C740   1.422       .  A
C735       C2384   1.400   1_455  A
C735       Br742   1.933       .  S
C736        C737   1.388       .  A
C736       C2383   1.400       .  A
C737        C738   1.409       .  A
C737       Br744   1.940       .  S
C738       C2387   1.456       .  A
C738       Br743   1.925       .  S
C739        C740   1.452       .  A
C739       C2386   1.456       .  A
C740       Br741   1.919       .  S
C745        C746   1.437       .  A
C745        C750   1.400       .  A
C745       Br752   1.947       .  S
C746        C747   1.455       .  A
C747        C748   1.433       .  A
C747       Br754   1.927       .  S
C748        C749   1.414       .  A
C748       Br753   1.937       .  S
C749        C750   1.418       .  A
C750       Br751   1.935       .  S
C755        C756   1.440       .  A
C755       C1584   1.415   1_545  A
C755       Br762   1.935   1_545  S
C756       C2405   1.448       .  A
C757        C758   1.406       .  A
C757       C2404   1.448       .  A
C757       Br764   1.942       .  S
C758       C1583   1.396   1_545  A
C758       Br763   1.929       .  S
C759       C1582   1.396       .  A
C759       C2408   1.407       .  A
C760       C1579   1.415       .  A
C760       C2407   1.407       .  A
C760       Br761   1.924       .  S
C765        C766   1.393       .  A
C765       C2418   1.421       .  A
C765       Br772   1.931       .  S
C766        C767   1.399       .  A
C767        C768   1.418       .  A
C767       Br774   1.925       .  S
C768       C2417   1.455       .  A
C768       Br773   1.946       .  S
C769        C770   1.462       .  A
C769       C2416   1.455       .  A
C770       C2413   1.421       .  A
C770       Br771   1.938       .  S
C775        C776   1.456   1_565  A
C775       C1604   1.424       .  A
C775      Br1606   1.924       .  S
C776        C777   1.459       .  A
C777        C778   1.421       .  A
C777       Br784   1.934       .  S
C778       C1603   1.397   1_545  A
C778       Br783   1.940       .  S
C779        C780   1.400       .  A
C779       C1602   1.397       .  A
C780       C1599   1.424       .  A
C780       Br781   1.937       .  S
Br782      C1599   1.924       .  S
C785        C786   1.444       .  A
C785        C790   1.419       .  A
C785       Br792   1.940       .  S
C786        C787   1.459       .  A
C787        C788   1.416       .  A
C787       Br794   1.930       .  S
C788        C789   1.390       .  A
C788      Br1617   1.929   1_556  S
C789       C1141   1.508   1_556  S
C789        C790   1.425       .  A
C790       Br791   1.943       .  S
Br793      C1612   1.929   1_554  S
C795        C796   1.450       .  A
C795       C2448   1.404       .  A
C795       Br802   1.939       .  S
C796        C797   1.452       .  A
C797       C1622   1.416       .  A
C797      Br1628   1.939       .  S
C798        C799   1.393       .  A
C798       C1621   1.416       .  A
C798       Br803   1.919   1_565  S
C799       C1847   1.475   1_565  S
C799       C3272   1.392       .  A
C800       C2443   1.404       .  A
C800       C3271   1.392       .  A
C800       Br801   1.934   1_655  S
Br804      C1621   1.939       .  S
C805        C806   1.463       .  A
C805        C810   1.417       .  A
C805       Br812   1.931       .  S
C806        C807   1.444       .  A
C807        C808   1.413       .  A
C807       Br814   1.927       .  S
C808        C809   1.406       .  A
C808       Br813   1.926       .  S
C809        C810   1.394       .  A
C810       Br811   1.924       .  S
C815        C816   1.441       .  A
C815        C820   1.426       .  A
C815       Br822   1.943       .  S
C816        C817   1.425       .  A
C817        C818   1.371       .  A
C817       Br824   1.944       .  S
C818        C819   1.406       .  A
C818       Br823   1.933   1_556  S
C819       C1903   1.490       .  S
C819        C820   1.423       .  A
C820      Br2469   1.928       .  S
Br821      C2468   1.928   1_455  S
C825       C1610   1.611       .  S
C825       C1620   1.606       .  S
C825       C1630   1.622       .  S
C825       C1640   1.577       .  S
O826       Zr838   2.336       .  S
O826        C828   1.267       .  A
O827       Zr864   2.470       .  S
O827        C828   1.300       .  A
C828       C1844   1.442       .  S
O829       Zr841   2.434       .  S
O829        C831   1.290       .  A
O830       Zr865   2.406       .  S
O830        C831   1.282       .  A
O832       Zr841   2.475       .  S
O832        C834   1.294       .  A
O833       Zr864   2.442       .  S
O833        C834   1.292       .  A
C834       C1603   1.500       .  S
O835       Zr838   2.416       .  S
O835        C837   1.282       .  A
O836       Zr865   2.451       .  S
O836        C837   1.291       .  A
C837       C1583   1.486       .  S
Zr838       O844   2.381       .  S
Zr838       O845   2.332       .  S
Zr838       O868   2.334       .  S
Zr838       O870   2.376       .  S
Zr838      O2488   2.437       .  S
O839        H882   0.990       .  S
O840      Zr2486   2.437   1_455  S
O840        H881   0.990       .  S
O840        H885   0.990       .  S
Zr841       O845   2.380       .  S
Zr841       O844   2.360       .  S
Zr841       O869   2.335       .  S
Zr841       O871   2.369       .  S
Zr841       O843   2.435       .  S
O842        H883   0.987       .  S
O842        H886   0.990       .  S
O843        H876   0.990       .  S
O844       Zr864   2.390       .  S
O845       Zr865   2.393       .  S
O845        H872   0.966       .  S
O846       Zr858   2.357       .  S
O846        C848   1.269       .  A
O847       Zr865   2.412       .  S
O847        C848   1.290       .  A
C848       C2736   1.428       .  S
O849       Zr861   2.334       .  S
O849        C851   1.266       .  A
O850       Zr864   2.472       .  S
O850        C851   1.302       .  A
C851       C1270   1.440       .  S
O852       Zr861   2.409       .  S
O852        C854   1.278       .  A
O853       Zr865   2.489       .  S
O853        C854   1.297       .  A
C854       C1573   1.516       .  S
O855       Zr858   2.424       .  S
O855        C857   1.282       .  A
O856       Zr864   2.482       .  S
O856        C857   1.298       .  A
C857       C1590   1.498       .  S
Zr858       O866   2.392       .  S
Zr858       O867   2.328       .  S
Zr858       O870   2.339       .  S
Zr858       O868   2.383       .  S
Zr858       O859   2.416       .  S
Zr858      O2508   2.436       .  S
O859        H879   0.984       .  S
O859        H884   0.988       .  S
O860      Zr2506   2.436   1_455  S
O860        H880   0.991       .  S
Zr861       O867   2.388       .  S
Zr861       O866   2.356       .  S
Zr861       O871   2.335       .  S
Zr861       O869   2.369       .  S
Zr861       O862   2.434       .  S
Zr861       O863   2.438       .  S
O862        H878   0.990       .  S
O863        H877   0.990       .  S
O863        H887   0.990       .  S
Zr864       O867   2.375       .  S
Zr864       O869   2.392       .  S
Zr864       O870   2.378       .  S
Zr865       O866   2.386       .  S
Zr865       O868   2.378       .  S
Zr865       O871   2.384       .  S
O866        H874   0.966       .  S
O869        H873   0.965       .  S
O870        H875   0.965       .  S
O888       Zr900   2.364       .  S
O888        C890   1.273       .  A
O889       Zr926   2.401       .  S
O889        C890   1.286       .  A
C890       C2756   1.422       .  S
O891       Zr903   2.367       .  S
O891        C893   1.275       .  A
O892       Zr927   2.419       .  S
O892        C893   1.289       .  A
C893       C1267   1.432       .  S
O894       Zr903   2.403       .  S
O894        C896   1.279       .  A
O895       Zr926   2.448       .  S
O895        C896   1.290       .  A
C896       C1550   1.477   1_556  S
O897       Zr900   2.435       .  S
O897        C899   1.285       .  A
O898       Zr927   2.440       .  S
O898        C899   1.288       .  A
C899       C1560   1.481       .  S
Zr900       O906   2.381       .  S
Zr900       O907   2.333       .  S
Zr900       O930   2.335       .  S
Zr900       O932   2.381       .  S
Zr900       O901   2.432       .  S
Zr900      O2550   2.431       .  S
O901        H944   0.990       .  S
O902      Zr2548   2.431   1_455  S
O902        H943   0.989       .  S
O902        H947   0.989       .  S
Zr903       O907   2.391       .  S
Zr903       O906   2.354       .  S
Zr903       O931   2.345       .  S
Zr903       O933   2.366       .  S
Zr903       O904   2.429       .  S
Zr903       O905   2.435       .  S
O904        H945   0.988       .  S
O904        H948   0.989       .  S
O905        H938   0.989       .  S
O906       Zr926   2.381       .  S
O907       Zr927   2.386       .  S
O907        H934   0.966       .  S
O908       Zr920   2.302       .  S
O908        C910   1.262       .  A
O909       Zr927   2.423       .  S
O909        C910   1.289       .  A
C910       C2665   1.412       .  S
O911       Zr923   2.424       .  S
O911        C913   1.287       .  A
O912       Zr926   2.401       .  S
O912        C913   1.281       .  A
C913       C1147   1.435   1_556  S
O914       Zr923   2.487       .  S
O914        C916   1.297       .  A
O915       Zr927   2.419       .  S
O915        C916   1.285       .  A
C916       C1530   1.496       .  S
O917       Zr920   2.398       .  S
O917        C919   1.277       .  A
O918       Zr926   2.435       .  S
O918        C919   1.287       .  A
C919       C1540   1.464   1_556  S
Zr920       O928   2.383       .  S
Zr920       O929   2.331       .  S
Zr920       O932   2.319       .  S
Zr920       O930   2.369       .  S
Zr920       O921   2.430       .  S
Zr920      O2570   2.435       .  S
O921        H941   0.989       .  S
O921        H946   0.990       .  S
O922      Zr2568   2.435   1_455  S
O922        H942   0.990       .  S
Zr923       O929   2.382       .  S
Zr923       O928   2.349       .  S
Zr923       O933   2.345       .  S
Zr923       O931   2.381       .  S
Zr923       O924   2.432       .  S
Zr923       O925   2.432       .  S
O924        H940   0.990       .  S
O925        H939   0.990       .  S
O925        H949   0.990       .  S
Zr926       O929   2.382       .  S
Zr926       O931   2.391       .  S
Zr926       O932   2.374       .  S
Zr927       O928   2.391       .  S
Zr927       O930   2.362       .  S
Zr927       O933   2.378       .  S
O928        H936   0.966       .  S
O931        H935   0.966       .  S
O932        H937   0.965       .  S
O950       Zr962   2.321       .  S
O950        C952   1.262       .  A
O951       Zr988   2.558       .  S
O951        C952   1.322       .  A
O953       Zr965   2.358       .  S
O953        C955   1.272       .  A
O954       Zr989   2.465       .  S
O954        C955   1.294       .  A
C955       C1085   1.444       .  S
O956       Zr965   2.427       .  S
O956        C958   1.284       .  A
O957       Zr988   2.490       .  S
O957        C958   1.301       .  A
C958       C1510   1.501       .  S
O959       Zr962   2.405       .  S
O959        C961   1.269       .  A
O960       Zr989   2.517       .  S
O960        C961   1.299       .  A
C961       C1500   1.537   1_565  S
Zr962       O968   2.367       .  S
Zr962       O969   2.349       .  S
Zr962       O992   2.343       .  S
Zr962       O994   2.388       .  S
Zr962       O963   2.438   1_556  S
O963       H1006   0.990       .  S
O964       H1005   0.985       .  S
O964       H1009   0.989       .  S
Zr965       O969   2.382       .  S
Zr965       O968   2.328       .  S
Zr965       O993   2.344       .  S
Zr965       O995   2.373       .  S
Zr965       O966   2.433   1_556  S
Zr965       O967   2.435       .  S
O966       H1007   0.990       .  S
O966       H1010   0.990       .  S
O967       H1000   0.990       .  S
O968       Zr988   2.365       .  S
O969       Zr989   2.398       .  S
O969        H996   0.965       .  S
O970       Zr982   2.379       .  S
O970        C972   1.274       .  A
O971       Zr989   2.456       .  S
O971        C972   1.293       .  A
O973       Zr985   2.372       .  S
O973        C975   1.274       .  A
O974       Zr988   2.515       .  S
O974        C975   1.305       .  A
C975       C1290   1.475       .  S
O976       Zr985   2.405       .  S
O976        C978   1.281       .  A
O977       Zr989   2.498       .  S
O977        C978   1.303       .  A
C978       C1490   1.497       .  S
O979       Zr982   2.384       .  S
O979        C981   1.277       .  A
O980       Zr988   2.524       .  S
O980        C981   1.308       .  A
C981       C1520   1.511       .  S
Zr982       O990   2.355       .  S
Zr982       O991   2.346       .  S
Zr982       O994   2.361       .  S
Zr982       O992   2.361       .  S
Zr982       O983   2.437       .  S
O983       H1003   0.990       .  S
O983       H1008   0.990       .  S
O984       H1004   0.990       .  S
Zr985       O991   2.358       .  S
Zr985       O990   2.349       .  S
Zr985       O995   2.350       .  S
Zr985       O993   2.370       .  S
Zr985       O986   2.432       .  S
Zr985       O987   2.427       .  S
O986       H1002   0.990       .  S
O987       H1001   0.990       .  S
O987       H1011   0.990       .  S
Zr988       O991   2.388       .  S
Zr988       O993   2.405       .  S
Zr988       O994   2.403       .  S
Zr989       O990   2.397       .  S
Zr989       O992   2.397       .  S
Zr989       O995   2.410       .  S
O990        H998   0.965       .  S
O993        H997   0.966       .  S
O994        H999   0.965       .  S
C1012      C1450   1.617       .  S
C1012      C1463   1.591       .  S
C1012      C1470   1.634       .  S
C1012      C1483   1.633       .  S
C1013      C1410   1.617       .  S
C1013      C1423   1.641       .  S
C1013      C1433   1.626       .  S
C1013      C1443   1.664       .  S
C1014      C1370   1.599       .  S
C1014      C1380   1.624       .  S
C1014      C1393   1.637       .  S
C1014      C1403   1.630       .  S
O1015     Zr2675   2.326       .  S
O1015      C2665   1.265       .  A
O1016     Zr1053   2.415       .  S
O1016      C1017   1.290   1_455  A
C1017      O2663   1.265       .  A
C1017      C2558   1.412       .  S
O1018     Zr2678   2.340       .  S
O1018      C2668   1.268       .  A
O1019     Zr1054   2.470       .  S
O1019      C1020   1.301   1_455  A
C1020      O2666   1.268       .  A
C1020      C1652   1.442       .  S
O1021     Zr2678   2.429       .  S
O1021      C2671   1.283       .  A
O1022     Zr1053   2.438       .  S
O1022      C1023   1.288   1_455  A
C1023      O2669   1.283       .  A
C1023      C3271   1.475       .  S
O1024     Zr2675   2.413       .  S
O1024      C2674   1.277       .  A
O1025     Zr1054   2.501       .  S
O1025      C1026   1.301       .  A
C1026      O2672   1.277       .  A
C1026      C3038   1.530   1_455  S
Zr1027     O2663   2.326   1_455  S
Zr1027     O2672   2.413       .  S
Zr1027     O1033   2.377       .  S
Zr1027     O1034   2.323       .  S
Zr1027     O1057   2.337       .  S
Zr1027     O1059   2.395       .  S
Zr1027     O2676   2.436   1_455  S
Zr1027     O1029   2.414       .  S
O1028     Zr2675   2.436       .  S
O1028      H1071   0.990       .  S
O1029      H1070   0.985       .  S
O1029      H2722   0.990       .  S
Zr1030     O2666   2.340   1_455  S
Zr1030     O2669   2.429   1_455  S
Zr1030     O1034   2.383       .  S
Zr1030     O1033   2.329       .  S
Zr1030     O1058   2.333       .  S
Zr1030     O1060   2.394       .  S
Zr1030     O2679   2.437   1_455  S
O1031     Zr2678   2.437       .  S
O1031      H1072   0.990       .  S
O1031      H1075   0.990       .  S
O1032      H1065   0.989   1_655  S
O1033     Zr1053   2.369       .  S
O1034     Zr1054   2.376       .  S
O1034      H2709   0.966   1_455  S
O1035     Zr1047   2.343       .  S
O1035      C1037   1.268       .  A
O1036     Zr1054   2.487       .  S
O1036      C1037   1.304       .  A
C1037      C1211   1.452       .  S
O1038     Zr1050   2.456       .  S
O1038      C1040   1.294       .  A
O1039     Zr1053   2.402       .  S
O1039      C1040   1.281       .  A
O1041     Zr1050   2.489       .  S
O1041      C1043   1.297       .  A
O1042     Zr1054   2.442       .  S
O1042      C1043   1.291       .  A
O1044     Zr1047   2.416       .  S
O1044      C1046   1.282       .  A
O1045     Zr1053   2.473       .  S
O1045      C1046   1.295       .  A
C1046      C1453   1.500       .  S
Zr1047     O1055   2.374       .  S
Zr1047     O1056   2.343       .  S
Zr1047     O1059   2.345       .  S
Zr1047     O1057   2.385       .  S
Zr1047     O1048   2.435       .  S
Zr1047     O1049   2.432       .  S
O1048      H1068   0.990       .  S
O1048      H1073   0.990       .  S
O1049      H1069   0.990       .  S
Zr1050     O1056   2.382       .  S
Zr1050     O1055   2.355       .  S
Zr1050     O1060   2.362       .  S
Zr1050     O1058   2.369       .  S
Zr1050     O1051   2.433       .  S
O1051      H1067   0.990       .  S
O1052      H1066   0.989       .  S
O1052      H1076   0.990       .  S
Zr1053     O1056   2.381       .  S
Zr1053     O1058   2.387       .  S
Zr1053     O1059   2.383       .  S
Zr1054     O1055   2.397       .  S
Zr1054     O1057   2.370       .  S
Zr1054     O1060   2.405       .  S
O1055      H1063   0.965       .  S
O1059      H1064   0.966       .  S
H1061      O2682   0.966       .  S
H1074      O2677   0.990       .  S
O1077     Zr2737   2.419       .  S
O1077      C2727   1.281   1_554  A
O1078     Zr1115   2.409   1_556  S
O1078      C1079   1.279       .  A
C1079      O2725   1.281   1_456  A
C1079      C3291   1.490   1_455  S
O1080     Zr1092   2.477       .  S
O1080      C1082   1.296       .  A
O1081     Zr1116   2.415       .  S
O1081      C1082   1.284       .  A
C1082      C1413   1.491       .  S
O1083     Zr1092   2.440       .  S
O1083      C1085   1.291   1_554  A
O1084     Zr1115   2.399   1_556  S
O1084      C1085   1.278       .  A
O1086     Zr2737   2.321       .  S
O1086      C2736   1.266       .  A
O1087     Zr1116   2.438       .  S
O1087      C1088   1.292       .  A
C1088      O2734   1.266   1_455  A
C1088      C2496   1.428   1_455  S
Zr1089     O2725   2.419   1_455  S
Zr1089     O2734   2.321   1_455  S
Zr1089     O1095   2.324       .  S
Zr1089     O1096   2.381       .  S
Zr1089     O1119   2.369       .  S
Zr1089     O1121   2.320       .  S
Zr1089     O1090   2.405       .  S
Zr1089     O2739   2.439   1_455  S
O1090      H1133   0.990       .  S
O1091     Zr2737   2.439       .  S
O1091      H1132   0.990       .  S
O1091      H1136   0.990       .  S
Zr1092     O1096   2.356       .  S
Zr1092     O1095   2.366       .  S
Zr1092     O1120   2.369       .  S
Zr1092     O1122   2.350       .  S
Zr1092     O1093   2.435       .  S
Zr1092     O1094   2.431       .  S
O1093      H1134   0.989       .  S
O1093      H1137   0.990       .  S
O1094      H1127   0.990       .  S
O1095     Zr1115   2.373       .  S
O1096     Zr1116   2.388       .  S
O1096      H1123   0.966       .  S
O1097     Zr2757   2.437       .  S
O1097      C2747   1.285       .  A
O1098     Zr1116   2.441       .  S
O1098      C1099   1.288       .  A
C1099      O2745   1.285       .  A
C1099      C3031   1.485   1_455  S
O1100     Zr1112   2.399       .  S
O1100      C1102   1.279   1_554  A
O1101     Zr1115   2.438   1_556  S
O1101      C1102   1.287       .  A
C1102      C1460   1.477       .  S
O1103     Zr1112   2.355       .  S
O1103      C1105   1.269       .  A
O1104     Zr1116   2.404       .  S
O1104      C1105   1.285       .  A
C1105      C1214   1.426       .  S
O1106     Zr2757   2.356       .  S
O1106      C2756   1.273   1_554  A
O1107     Zr1115   2.406   1_556  S
O1107      C1108   1.287   1_455  A
C1108      O2754   1.273   1_556  A
C1108      C2538   1.422       .  S
Zr1109     O2745   2.437       .  S
Zr1109     O2754   2.356   1_455  S
Zr1109     O1117   2.345       .  S
Zr1109     O1118   2.400       .  S
Zr1109     O1121   2.373       .  S
Zr1109     O1119   2.329       .  S
Zr1109     O1110   2.429       .  S
Zr1109     O2759   2.436   1_455  S
O1110      H1130   0.989       .  S
O1110      H2783   0.990   1_455  S
O1111     Zr2757   2.436       .  S
O1111      H1131   0.990       .  S
Zr1112     O1118   2.345       .  S
Zr1112     O1117   2.370       .  S
Zr1112     O1122   2.374       .  S
Zr1112     O1120   2.357       .  S
Zr1112     O1113   2.433       .  S
Zr1112     O1114   2.436       .  S
O1113      H1129   0.990       .  S
O1114      H1128   0.989       .  S
O1114      H1138   0.990       .  S
Zr1115     O1118   2.390       .  S
Zr1115     O1120   2.383       .  S
Zr1115     O1121   2.382       .  S
Zr1116     O1117   2.383       .  S
Zr1116     O1119   2.367       .  S
Zr1116     O1122   2.377       .  S
O1117      H1125   0.966       .  S
O1120      H1124   0.965       .  S
O1121      H2774   0.965   1_455  S
H1126      O2769   0.965       .  S
H1135      O2758   0.990       .  S
O1140     Zr1177   2.534       .  S
O1140      C1141   1.304       .  A
O1142     Zr1154   2.426       .  S
O1142      C1144   1.284       .  A
O1143     Zr1178   2.527       .  S
O1143      C1144   1.308       .  A
C1144      C1473   1.526   1_554  S
O1145     Zr1154   2.384       .  S
O1145      C1147   1.276       .  A
O1146     Zr1177   2.424       .  S
O1146      C1147   1.286       .  A
O1149     Zr1178   2.571       .  S
O1149      C1150   1.323       .  A
Zr1151     O1157   2.332       .  S
Zr1151     O1158   2.353       .  S
Zr1151     O1181   2.368       .  S
Zr1151     O1183   2.344       .  S
Zr1151     O1152   2.451   1_554  S
O1152      H1195   0.991       .  S
O1153      H1194   0.989       .  S
O1153      H1198   0.989       .  S
Zr1154     O1158   2.358       .  S
Zr1154     O1157   2.374       .  S
Zr1154     O1182   2.353       .  S
Zr1154     O1184   2.340       .  S
Zr1154     O1155   2.432   1_554  S
Zr1154     O1156   2.431       .  S
O1155      H1196   0.989       .  S
O1155      H1199   0.989       .  S
O1156      H1189   0.990       .  S
O1157     Zr1177   2.363       .  S
O1158     Zr1178   2.374       .  S
O1158      H1185   0.964       .  S
O1160     Zr1178   2.536       .  S
O1160      C1161   1.311       .  A
O1162     Zr1174   2.410       .  S
O1162      C1164   1.282       .  A
O1163     Zr1177   2.477       .  S
O1163      C1164   1.297       .  A
C1164      C1373   1.486       .  S
O1165     Zr1174   2.374       .  S
O1165      C1167   1.276       .  A
O1166     Zr1178   2.509       .  S
O1166      C1167   1.305       .  A
C1167      C1231   1.469       .  S
O1169     Zr1177   2.443       .  S
O1169      C1170   1.290       .  A
Zr1171     O1179   2.348       .  S
Zr1171     O1180   2.365       .  S
Zr1171     O1183   2.350       .  S
Zr1171     O1181   2.357       .  S
Zr1171     O1172   2.437       .  S
O1172      H1192   0.989       .  S
O1173      H1193   0.990       .  S
Zr1174     O1180   2.346       .  S
Zr1174     O1179   2.356       .  S
Zr1174     O1184   2.372       .  S
Zr1174     O1182   2.342       .  S
Zr1174     O1175   2.434       .  S
Zr1174     O1176   2.427       .  S
O1175      H1191   0.990       .  S
O1176      H1190   0.990       .  S
O1176      H1200   0.989       .  S
Zr1177     O1180   2.395       .  S
Zr1177     O1182   2.408       .  S
Zr1177     O1183   2.391       .  S
Zr1178     O1179   2.414       .  S
Zr1178     O1181   2.394       .  S
Zr1178     O1184   2.418       .  S
O1179      H1187   0.964       .  S
O1182      H1186   0.966       .  S
C1201      C1360   1.641       .  S
C1201      C1513   1.628       .  S
C1201      C1553   1.607       .  S
C1201      C1570   1.612       .  S
C1202      C1350   1.646       .  S
C1202      C1493   1.614       .  S
C1202      C1563   1.611       .  S
C1202      C1593   1.623       .  S
O1203     Zr1215   2.453       .  S
O1203      C1205   1.288       .  A
O1204     Zr1241   2.521       .  S
O1204      C1205   1.304       .  A
C1205      C1353   1.548       .  S
O1206     Zr1218   2.434       .  S
O1206      C1208   1.283       .  A
O1207     Zr1242   2.476       .  S
O1207      C1208   1.293       .  A
C1208      C1333   1.527       .  S
O1209     Zr1218   2.344       .  S
O1209      C1211   1.269       .  A
O1210     Zr1241   2.488       .  S
O1210      C1211   1.305       .  A
O1212     Zr1215   2.356       .  S
O1212      C1214   1.273       .  A
O1213     Zr1242   2.417       .  S
O1213      C1214   1.290       .  A
Zr1215     O1221   2.332       .  S
Zr1215     O1222   2.385       .  S
Zr1215     O1245   2.396       .  S
Zr1215     O1247   2.346       .  S
Zr1215     O1216   2.433       .  S
Zr1215     O1217   2.432       .  S
O1216      H1259   0.990       .  S
O1217      H1258   0.990       .  S
O1217      H1262   0.990       .  S
Zr1218     O1222   2.328       .  S
Zr1218     O1221   2.383       .  S
Zr1218     O1246   2.384       .  S
Zr1218     O1248   2.332       .  S
Zr1218     O1219   2.432       .  S
Zr1218     O1220   2.418       .  S
O1219      H1260   0.990       .  S
O1219      H1263   0.990       .  S
O1220      H1253   0.990       .  S
O1221     Zr1241   2.381       .  S
O1222     Zr1242   2.391       .  S
O1222      H1249   0.966       .  S
O1223     Zr1235   2.456       .  S
O1223      C1225   1.289       .  A
O1224     Zr1242   2.487       .  S
O1224      C1225   1.298       .  A
C1225      C1363   1.516       .  S
O1226     Zr1238   2.498       .  S
O1226      C1228   1.299       .  A
O1227     Zr1241   2.480       .  S
O1227      C1228   1.296       .  A
C1228      C1340   1.553       .  S
O1229     Zr1238   2.463       .  S
O1229      C1231   1.295       .  A
O1230     Zr1242   2.434       .  S
O1230      C1231   1.287       .  A
O1232     Zr1235   2.384       .  S
O1232      C1234   1.276       .  A
O1233     Zr1241   2.488       .  S
O1233      C1234   1.303       .  A
C1234      C1287   1.471       .  S
Zr1235     O1243   2.362       .  S
Zr1235     O1244   2.383       .  S
Zr1235     O1247   2.391       .  S
Zr1235     O1245   2.348       .  S
Zr1235     O1236   2.427       .  S
Zr1235     O1237   2.430       .  S
O1236      H1256   0.989       .  S
O1236      H1261   0.990       .  S
O1237      H1257   0.990       .  S
Zr1238     O1244   2.359       .  S
Zr1238     O1243   2.390       .  S
Zr1238     O1248   2.369       .  S
Zr1238     O1246   2.358       .  S
Zr1238     O1239   2.433       .  S
Zr1238     O1240   2.430       .  S
O1239      H1255   0.990       .  S
O1240      H1254   0.989       .  S
O1240      H1264   0.989       .  S
Zr1241     O1244   2.397       .  S
Zr1241     O1246   2.404       .  S
Zr1241     O1247   2.393       .  S
Zr1242     O1243   2.397       .  S
Zr1242     O1245   2.399       .  S
Zr1242     O1248   2.381       .  S
O1243      H1251   0.966       .  S
O1246      H1250   0.966       .  S
O1247      H1252   0.966       .  S
O1265     Zr1277   2.375       .  S
O1265      C1267   1.276       .  A
O1266     Zr1303   2.411       .  S
O1266      C1267   1.288       .  A
O1268     Zr1280   2.329       .  S
O1268      C1270   1.266       .  A
O1269     Zr1304   2.472       .  S
O1269      C1270   1.301       .  A
O1271     Zr1280   2.413       .  S
O1271      C1273   1.280       .  A
O1272     Zr1303   2.491       .  S
O1272      C1273   1.300       .  A
C1273      C1633   1.502       .  S
O1274     Zr1277   2.452       .  S
O1274      C1276   1.289       .  A
O1275     Zr1304   2.518       .  S
O1275      C1276   1.305       .  A
C1276      C1400   1.535       .  S
Zr1277     O1283   2.386       .  S
Zr1277     O1284   2.337       .  S
Zr1277     O1307   2.349       .  S
Zr1277     O1309   2.390       .  S
Zr1277     O1278   2.432       .  S
Zr1277     O1279   2.414       .  S
O1278      H1321   0.990       .  S
O1279      H1320   0.987       .  S
O1279      H1324   0.990       .  S
Zr1280     O1284   2.376       .  S
Zr1280     O1283   2.331       .  S
Zr1280     O1308   2.338       .  S
Zr1280     O1310   2.387       .  S
Zr1280     O1281   2.437       .  S
Zr1280     O1282   2.422       .  S
O1281      H1322   0.990       .  S
O1281      H1325   0.990       .  S
O1282      H1315   0.988       .  S
O1283     Zr1303   2.387       .  S
O1284     Zr1304   2.391       .  S
O1284      H1311   0.965       .  S
O1285     Zr1297   2.389       .  S
O1285      C1287   1.277       .  A
O1286     Zr1304   2.487       .  S
O1286      C1287   1.304       .  A
O1288     Zr1300   2.466       .  S
O1288      C1290   1.297       .  A
O1289     Zr1303   2.447       .  S
O1289      C1290   1.289       .  A
O1291     Zr1300   2.503       .  S
O1291      C1293   1.301       .  A
O1292     Zr1304   2.485       .  S
O1292      C1293   1.297       .  A
C1293      C1440   1.556       .  S
O1294     Zr1297   2.438       .  S
O1294      C1296   1.287       .  A
O1295     Zr1303   2.493       .  S
O1295      C1296   1.300       .  A
C1296      C1480   1.516       .  S
Zr1297     O1305   2.375       .  S
Zr1297     O1306   2.359       .  S
Zr1297     O1309   2.353       .  S
Zr1297     O1307   2.390       .  S
Zr1297     O1298   2.432       .  S
Zr1297     O1299   2.434       .  S
O1298      H1318   0.990       .  S
O1298      H1323   0.990       .  S
O1299      H1319   0.990       .  S
Zr1300     O1306   2.383       .  S
Zr1300     O1305   2.358       .  S
Zr1300     O1310   2.359       .  S
Zr1300     O1308   2.372       .  S
Zr1300     O1301   2.434       .  S
Zr1300     O1302   2.415       .  S
O1301      H1317   0.990       .  S
O1302      H1316   0.990       .  S
O1302      H1326   0.985       .  S
Zr1303     O1306   2.394       .  S
Zr1303     O1308   2.380       .  S
Zr1303     O1309   2.404       .  S
Zr1304     O1305   2.402       .  S
Zr1304     O1307   2.388       .  S
Zr1304     O1310   2.396       .  S
O1305      H1313   0.966       .  S
O1308      H1312   0.965       .  S
O1309      H1314   0.966       .  S
C1327      C1343   1.651       .  S
C1327      C1523   1.636       .  S
C1327      C1533   1.615       .  S
C1327      C1600   1.625       .  S
C1328      C1330   1.619       .  S
C1328      C1503   1.639       .  S
C1328      C1543   1.603       .  S
C1328      C1580   1.594       .  S
C1329      C1330   1.434       .  A
C1329      C1334   1.393       .  A
C1329     Br1336   1.941       .  S
C1330      C1331   1.454       .  A
C1331      C1332   1.440       .  A
C1331     Br1338   1.944       .  S
C1332      C1333   1.422       .  A
C1332     Br1337   1.930       .  S
C1333      C1334   1.413       .  A
C1334     Br1335   1.935       .  S
C1339      C1340   1.415       .  A
C1339      C1344   1.412       .  A
C1339     Br1346   1.937       .  S
C1340      C1341   1.430       .  A
C1341      C1342   1.448       .  A
C1341     Br1348   1.934       .  S
C1342      C1343   1.449       .  A
C1342     Br1347   1.928       .  S
C1343      C1344   1.451       .  A
C1344     Br1345   1.946       .  S
C1349      C1350   1.441       .  A
C1349      C1354   1.408       .  A
C1349     Br1356   1.941       .  S
C1350      C1351   1.460       .  A
C1351      C1352   1.449       .  A
C1351     Br1358   1.933       .  S
C1352      C1353   1.422       .  A
C1352     Br1357   1.928       .  S
C1353      C1354   1.415       .  A
C1354     Br1355   1.930       .  S
C1359      C1360   1.458       .  A
C1359      C1364   1.424       .  A
C1359     Br1366   1.930       .  S
C1360      C1361   1.462       .  A
C1361      C1362   1.433       .  A
C1361     Br1368   1.939       .  S
C1362      C1363   1.403       .  A
C1362     Br1367   1.933       .  S
C1363      C1364   1.400       .  A
C1364     Br1365   1.939       .  S
C1369      C1370   1.436       .  A
C1369      C1374   1.414       .  A
C1369     Br1376   1.918       .  S
C1370      C1371   1.446       .  A
C1371      C1372   1.419       .  A
C1371     Br1378   1.917       .  S
C1372      C1373   1.402       .  A
C1372     Br1377   1.939       .  S
C1373      C1374   1.394       .  A
C1374     Br1375   1.926       .  S
C1379      C1380   1.436       .  A
C1379      C1384   1.398       .  A
C1379     Br1386   1.939       .  S
C1380      C1381   1.456       .  A
C1381      C1382   1.427       .  A
C1381     Br1388   1.940       .  S
C1382      C1383   1.400       .  A
C1382     Br1387   1.923       .  S
C1383      C2747   1.485       .  S
C1383      C1384   1.390       .  A
C1384     Br3033   1.931       .  S
Br1385     C3032   1.931   1_455  S
C1389      C1390   1.425       .  A
C1389      C1394   1.412       .  A
C1389     Br1396   1.941       .  S
C1390      C2674   1.530       .  S
C1390      C1391   1.411       .  A
C1391      C1392   1.428       .  A
C1391     Br3046   1.936       .  S
C1392      C1393   1.452       .  A
C1392     Br1397   1.932       .  S
C1393      C1394   1.441       .  A
C1394     Br1395   1.951       .  S
Br1398     C3039   1.936   1_455  S
C1399      C1400   1.407       .  A
C1399      C1404   1.435       .  A
C1399     Br1406   1.932       .  S
C1400      C1401   1.415       .  A
C1401      C1402   1.429       .  A
C1401     Br1408   1.927       .  S
C1402      C1403   1.451       .  A
C1402     Br1407   1.952       .  S
C1403      C1404   1.459       .  A
C1404     Br1405   1.941       .  S
C1409      C1410   1.460       .  A
C1409      C1414   1.412       .  A
C1409     Br1416   1.936       .  S
C1410      C1411   1.452       .  A
C1411      C1412   1.426       .  A
C1411     Br1418   1.931       .  S
C1412      C1413   1.401       .  A
C1412     Br1417   1.927       .  S
C1413      C1414   1.389       .  A
C1414     Br1415   1.932       .  S
C1419      C1420   1.421       .  A
C1419      C1424   1.432       .  A
C1419     Br1426   1.933   1_565  S
C1420      C1421   1.391       .  A
C1421      C1422   1.416       .  A
C1421     Br1428   1.939       .  S
C1422      C1423   1.467       .  A
C1422     Br1427   1.945       .  S
C1423      C1424   1.440       .  A
C1424     Br1425   1.933       .  S
C1429      C1430   1.395       .  A
C1429      C1434   1.420       .  A
C1429     Br1436   1.938       .  S
C1431     Br1438   1.935       .  S
C1432      C1433   1.458       .  A
C1433      C1434   1.459       .  A
C1434     Br1435   1.923       .  S
C1439      C1440   1.409       .  A
C1439      C1444   1.433       .  A
C1439     Br1446   1.948       .  S
C1440      C1441   1.420       .  A
C1441      C1442   1.444       .  A
C1441     Br1448   1.937       .  S
C1442      C1443   1.452       .  A
C1442     Br1447   1.920       .  S
C1443      C1444   1.472       .  A
C1444     Br1445   1.944       .  S
C1449      C1450   1.451       .  A
C1449      C1454   1.424       .  A
C1449     Br1456   1.917       .  S
C1450      C1451   1.452       .  A
C1451      C1452   1.420       .  A
C1451     Br1458   1.928       .  S
C1452      C1453   1.405       .  A
C1452     Br1457   1.945       .  S
C1453      C1454   1.401       .  A
C1454     Br1455   1.938       .  S
C1459      C1460   1.403       .  A
C1459      C1464   1.410       .  A
C1459     Br1466   1.940       .  S
C1460      C1461   1.389       .  A
C1461      C1462   1.403       .  A
C1461     Br1468   1.935       .  S
C1462      C1463   1.459       .  A
C1462     Br1467   1.950       .  S
C1463      C1464   1.445       .  A
C1464     Br1465   1.938       .  S
C1469      C1470   1.466       .  A
C1469      C1474   1.436       .  A
C1469     Br1476   1.923       .  S
C1470      C1471   1.443       .  A
C1471      C1472   1.407       .  A
C1471     Br1478   1.937       .  S
C1472      C1473   1.409       .  A
C1472     Br1477   1.927       .  S
C1473      C1474   1.404       .  A
C1474     Br1475   1.928   1_556  S
C1479      C1480   1.410       .  A
C1479      C1484   1.426       .  A
C1479     Br1486   1.936       .  S
C1480      C1481   1.401       .  A
C1481      C1482   1.426       .  A
C1481     Br1488   1.943       .  S
C1482      C1483   1.466       .  A
C1482     Br1487   1.946       .  S
C1483      C1484   1.449       .  A
C1484     Br1485   1.935       .  S
C1489      C1490   1.411       .  A
C1489      C1494   1.422       .  A
C1489     Br1496   1.937       .  S
C1490      C1491   1.393       .  A
C1491      C1492   1.418       .  A
C1491     Br1498   1.942       .  S
C1492      C1493   1.463       .  A
C1492     Br1497   1.943       .  S
C1493      C1494   1.442       .  A
C1494     Br1495   1.934       .  S
C1499      C1500   1.413   1_564  A
C1499     Br1506   1.937   1_554  S
C1501      C1502   1.416       .  A
C1501     Br1508   1.930   1_554  S
C1502      C1503   1.418       .  A
C1502     Br1507   1.938       .  S
C1503      C1504   1.439       .  A
C1504     Br1505   1.923       .  S
C1509      C1510   1.404   1_554  A
C1509      C1514   1.425       .  A
C1509     Br1516   1.940       .  S
C1510      C1511   1.396       .  A
C1511      C1512   1.421   1_556  A
C1511     Br1518   1.940       .  S
C1512      C1513   1.465       .  A
C1512     Br1517   1.944   1_554  S
C1513      C1514   1.450       .  A
C1514     Br1515   1.927       .  S
C1519      C1524   1.416       .  A
C1520      C1521   1.420       .  A
C1521     Br1528   1.935       .  S
C1522      C1523   1.437       .  A
C1522     Br1527   1.928       .  S
C1523      C1524   1.464       .  A
C1524     Br1525   1.943       .  S
C1529      C1530   1.402       .  A
C1529      C1534   1.430       .  A
C1529     Br1536   1.929       .  S
C1530      C1531   1.388       .  A
C1531      C1532   1.409       .  A
C1531     Br1538   1.922       .  S
C1532      C1533   1.456       .  A
C1532     Br1537   1.932       .  S
C1533      C1534   1.451       .  A
C1534     Br1535   1.920       .  S
C1539      C1540   1.390       .  A
C1539      C3192   1.410       .  A
C1539     Br1546   1.946   1_554  S
C1540      C1541   1.386       .  A
C1541      C3190   1.405       .  A
C1541     Br1548   1.927       .  S
C1542      C3189   1.405       .  A
C1542      C1543   1.453       .  A
C1542     Br1547   1.939       .  S
C1543      C1544   1.451       .  A
C1544      C3187   1.410   1_455  A
C1544     Br1545   1.915       .  S
C1549      C1550   1.393       .  A
C1549      C1554   1.414       .  A
C1549     Br1556   1.944       .  S
C1550      C1551   1.400       .  A
C1551      C1552   1.414       .  A
C1551     Br1558   1.941   1_554  S
C1552      C1553   1.449       .  A
C1552     Br1557   1.931       .  S
C1553      C1554   1.463       .  A
C1554     Br1555   1.939       .  S
C1559      C3208   1.400   1_455  A
C1559      C1564   1.422       .  A
C1559     Br1566   1.933       .  S
C1560      C3207   1.400       .  A
C1560      C1561   1.388       .  A
C1561      C1562   1.409       .  A
C1561     Br1568   1.940       .  S
C1562      C3211   1.456       .  A
C1562     Br1567   1.925       .  S
C1563      C3210   1.456       .  A
C1563      C1564   1.452       .  A
C1564     Br1565   1.919       .  S
C1569      C1570   1.437       .  A
C1569      C1574   1.400       .  A
C1569     Br1576   1.947       .  S
C1570      C1571   1.455       .  A
C1571      C1572   1.433       .  A
C1571     Br1578   1.927       .  S
C1572      C1573   1.414       .  A
C1572     Br1577   1.937       .  S
C1573      C1574   1.418       .  A
C1574     Br1575   1.935       .  S
C1579      C1580   1.440       .  A
C1579     Br1586   1.935       .  S
C1580      C3229   1.448       .  A
C1581      C3228   1.448       .  A
C1581      C1582   1.406       .  A
C1581     Br1588   1.942       .  S
C1582     Br1587   1.929       .  S
C1583      C3232   1.407       .  A
C1584      C3231   1.407       .  A
C1584     Br1585   1.924       .  S
C1589      C1590   1.393       .  A
C1589      C3242   1.421       .  A
C1589     Br1596   1.931       .  S
C1590      C1591   1.399       .  A
C1591      C1592   1.418       .  A
C1591     Br1598   1.925       .  S
C1592      C3241   1.455       .  A
C1592     Br1597   1.946       .  S
C1593      C3240   1.455       .  A
C1593      C1594   1.462       .  A
C1594      C3237   1.421       .  A
C1594     Br1595   1.938       .  S
C1599      C1600   1.456       .  A
C1600      C1601   1.459       .  A
C1601      C1602   1.421       .  A
C1601     Br1608   1.934       .  S
C1602     Br1607   1.940       .  S
C1603      C1604   1.400       .  A
C1604     Br1605   1.937       .  S
C1609      C1610   1.444       .  A
C1609      C1614   1.419       .  A
C1609     Br1616   1.940       .  S
C1610      C1611   1.459       .  A
C1611      C1612   1.416       .  A
C1611     Br1618   1.930       .  S
C1612      C1613   1.390       .  A
C1613      C1614   1.425       .  A
C1614     Br1615   1.943       .  S
C1619      C1620   1.450       .  A
C1619      C3272   1.404       .  A
C1619     Br1626   1.939       .  S
C1620      C1621   1.452       .  A
C1622      C1623   1.393       .  A
C1622     Br1627   1.919       .  S
C1623      C2671   1.475       .  S
C1623      C2448   1.392       .  A
C1624      C3267   1.404       .  A
C1624      C2447   1.392       .  A
C1624     Br1625   1.934   1_655  S
C1629      C1630   1.463       .  A
C1629      C1634   1.417       .  A
C1629     Br1636   1.931       .  S
C1630      C1631   1.444       .  A
C1631      C1632   1.413       .  A
C1631     Br1638   1.927       .  S
C1632      C1633   1.406       .  A
C1632     Br1637   1.926       .  S
C1633      C1634   1.394       .  A
C1634     Br1635   1.924       .  S
C1639      C1640   1.441       .  A
C1639      C1644   1.426       .  A
C1639     Br1646   1.943       .  S
C1640      C1641   1.425       .  A
C1641      C1642   1.371       .  A
C1641     Br1648   1.944       .  S
C1642      C1643   1.406       .  A
C1642     Br1647   1.933   1_556  S
C1643      C2727   1.490       .  S
C1643      C1644   1.423       .  A
C1644     Br3293   1.928       .  S
Br1645     C3292   1.928   1_455  S
C1649      C2434   1.611       .  S
C1649      C2444   1.606       .  S
C1649      C2454   1.622       .  S
C1649      C2464   1.577       .  S
O1650     Zr1662   2.336       .  S
O1650      C1652   1.267       .  A
O1651     Zr1688   2.470       .  S
O1651      C1652   1.300       .  A
O1653     Zr1665   2.434       .  S
O1653      C1655   1.290       .  A
O1654     Zr1689   2.406       .  S
O1654      C1655   1.282       .  A
C1655      C2818   1.441       .  S
O1656     Zr1665   2.475       .  S
O1656      C1658   1.294       .  A
O1657     Zr1688   2.442       .  S
O1657      C1658   1.292       .  A
C1658      C2427   1.500       .  S
O1659     Zr1662   2.416       .  S
O1659      C1661   1.282       .  A
O1660     Zr1689   2.451       .  S
O1660      C1661   1.291       .  A
C1661      C2407   1.486   1_655  S
Zr1662     O1668   2.381       .  S
Zr1662     O1669   2.332       .  S
Zr1662     O1692   2.334       .  S
Zr1662     O1694   2.376       .  S
Zr1662     O2487   2.437       .  S
O1663     Zr2486   2.437   1_545  S
O1663      H1706   0.990       .  S
O1664      H1705   0.990       .  S
O1664      H1709   0.990       .  S
Zr1665     O1669   2.380       .  S
Zr1665     O1668   2.360       .  S
Zr1665     O1693   2.335       .  S
Zr1665     O1695   2.369       .  S
Zr1665     O2490   2.396       .  S
Zr1665     O1667   2.435       .  S
O1666     Zr2489   2.396   1_545  S
O1666      H1707   0.987       .  S
O1666      H1710   0.990       .  S
O1667      H1700   0.990       .  S
O1668     Zr1688   2.390       .  S
O1669     Zr1689   2.393       .  S
O1669      H1696   0.966       .  S
O1670     Zr1682   2.357       .  S
O1670      C1672   1.269       .  A
O1671     Zr1689   2.412       .  S
O1671      C1672   1.290       .  A
O1673     Zr1685   2.334       .  S
O1673      C1675   1.266       .  A
O1674     Zr1688   2.472       .  S
O1674      C1675   1.302       .  A
C1675      C2094   1.440       .  S
O1676     Zr1685   2.409       .  S
O1676      C1678   1.278       .  A
O1677     Zr1689   2.489       .  S
O1677      C1678   1.297       .  A
C1678      C2397   1.516       .  S
O1679     Zr1682   2.424       .  S
O1679      C1681   1.282       .  A
O1680     Zr1688   2.482       .  S
O1680      C1681   1.298       .  A
C1681      C2414   1.498       .  S
Zr1682     O1690   2.392       .  S
Zr1682     O1691   2.328       .  S
Zr1682     O1694   2.339       .  S
Zr1682     O1692   2.383       .  S
Zr1682     O1683   2.416       .  S
O1683      H1703   0.984       .  S
O1683      H1708   0.988       .  S
O1684      H1704   0.991       .  S
Zr1685     O1691   2.388       .  S
Zr1685     O1690   2.356       .  S
Zr1685     O1695   2.335       .  S
Zr1685     O1693   2.369       .  S
Zr1685     O1686   2.434       .  S
Zr1685     O1687   2.438       .  S
O1686      H1702   0.990       .  S
O1687      H1701   0.990       .  S
O1687      H1711   0.990       .  S
Zr1688     O1691   2.375       .  S
Zr1688     O1693   2.392       .  S
Zr1688     O1694   2.378       .  S
Zr1689     O1690   2.386       .  S
Zr1689     O1692   2.378       .  S
Zr1689     O1695   2.384       .  S
O1690      H1698   0.966       .  S
O1693      H1697   0.965       .  S
O1694      H1699   0.965       .  S
O1712     Zr1724   2.364       .  S
O1712      C1714   1.273       .  A
O1713     Zr1750   2.401       .  S
O1713      C1714   1.286       .  A
O1715     Zr1727   2.367       .  S
O1715      C1717   1.275       .  A
O1716     Zr1751   2.419       .  S
O1716      C1717   1.289       .  A
C1717      C2091   1.432       .  S
O1718     Zr1727   2.403       .  S
O1718      C1720   1.279       .  A
O1719     Zr1750   2.448       .  S
O1719      C1720   1.290       .  A
C1720      C2374   1.477   1_556  S
O1721     Zr1724   2.435       .  S
O1721      C1723   1.285       .  A
O1722     Zr1751   2.440       .  S
O1722      C1723   1.288       .  A
C1723      C2384   1.481       .  S
Zr1724     O1730   2.381       .  S
Zr1724     O1731   2.333       .  S
Zr1724     O1754   2.335       .  S
Zr1724     O1756   2.381       .  S
Zr1724     O1725   2.432       .  S
O1725      H1768   0.990       .  S
O1726      H1767   0.989       .  S
O1726      H1771   0.989       .  S
Zr1727     O1731   2.391       .  S
Zr1727     O1730   2.354       .  S
Zr1727     O1755   2.345       .  S
Zr1727     O1757   2.366       .  S
Zr1727     O1728   2.429       .  S
Zr1727     O1729   2.435       .  S
O1728      H1769   0.988       .  S
O1728      H1772   0.989       .  S
O1729      H1762   0.989       .  S
O1730     Zr1750   2.381       .  S
O1731     Zr1751   2.386       .  S
O1731      H1758   0.966       .  S
O1732     Zr1744   2.302       .  S
O1732      C1734   1.262       .  A
O1733     Zr1751   2.423       .  S
O1733      C1734   1.289       .  A
O1735     Zr1747   2.424       .  S
O1735      C1737   1.287       .  A
O1736     Zr1750   2.401       .  S
O1736      C1737   1.281       .  A
C1737      C1971   1.435   1_556  S
O1738     Zr1747   2.487       .  S
O1738      C1740   1.297       .  A
O1739     Zr1751   2.419       .  S
O1739      C1740   1.285       .  A
C1740      C2354   1.496       .  S
O1741     Zr1744   2.398       .  S
O1741      C1743   1.277       .  A
O1742     Zr1750   2.435       .  S
O1742      C1743   1.287       .  A
C1743      C2364   1.464   1_656  S
Zr1744     O1752   2.383       .  S
Zr1744     O1753   2.331       .  S
Zr1744     O1756   2.319       .  S
Zr1744     O1754   2.369       .  S
Zr1744     O1745   2.430       .  S
O1745      H1765   0.989       .  S
O1745      H1770   0.990       .  S
O1746      H1766   0.990       .  S
Zr1747     O1753   2.382       .  S
Zr1747     O1752   2.349       .  S
Zr1747     O1757   2.345       .  S
Zr1747     O1755   2.381       .  S
Zr1747     O1748   2.432       .  S
Zr1747     O1749   2.432       .  S
O1748      H1764   0.990       .  S
O1749      H1763   0.990       .  S
O1749      H1773   0.990       .  S
Zr1750     O1753   2.382       .  S
Zr1750     O1755   2.391       .  S
Zr1750     O1756   2.374       .  S
Zr1751     O1752   2.391       .  S
Zr1751     O1754   2.362       .  S
Zr1751     O1757   2.378       .  S
O1752      H1760   0.966       .  S
O1755      H1759   0.966       .  S
O1756      H1761   0.965       .  S
O1774     Zr1786   2.321       .  S
O1774      C1776   1.262       .  A
O1775     Zr1812   2.558       .  S
O1775      C1776   1.322       .  A
C1776      C2798   1.466   1_556  S
O1777     Zr1789   2.358       .  S
O1777      C1779   1.272       .  A
O1778     Zr1813   2.465       .  S
O1778      C1779   1.294       .  A
C1779      C1909   1.444       .  S
O1780     Zr1789   2.427       .  S
O1780      C1782   1.284       .  A
O1781     Zr1812   2.490       .  S
O1781      C1782   1.301       .  A
C1782      C2334   1.501       .  S
O1783     Zr1786   2.405       .  S
O1783      C1785   1.269       .  A
O1784     Zr1813   2.517       .  S
O1784      C1785   1.299       .  A
C1785      C2324   1.537       .  S
Zr1786     O1792   2.367       .  S
Zr1786     O1793   2.349       .  S
Zr1786     O1816   2.343       .  S
Zr1786     O1818   2.388       .  S
Zr1786     O1787   2.438   1_556  S
Zr1786     O2612   2.428       .  S
O1787      H1830   0.990       .  S
O1788     Zr2610   2.428   1_545  S
O1788      H1829   0.985       .  S
O1788      H1833   0.989       .  S
Zr1789     O1793   2.382       .  S
Zr1789     O1792   2.328       .  S
Zr1789     O1817   2.344       .  S
Zr1789     O1819   2.373       .  S
Zr1789     O1790   2.433   1_556  S
Zr1789     O1791   2.435       .  S
O1790      H1831   0.990       .  S
O1790      H1834   0.990       .  S
O1791      H1824   0.990       .  S
O1792     Zr1812   2.365       .  S
O1793     Zr1813   2.398       .  S
O1793      H1820   0.965       .  S
O1794     Zr1806   2.379       .  S
O1794      C1796   1.274       .  A
O1795     Zr1813   2.456       .  S
O1795      C1796   1.293       .  A
C1796      C2688   1.446       .  S
O1797     Zr1809   2.372       .  S
O1797      C1799   1.274       .  A
O1798     Zr1812   2.515       .  S
O1798      C1799   1.305       .  A
C1799      C2114   1.475       .  S
O1800     Zr1809   2.405       .  S
O1800      C1802   1.281       .  A
O1801     Zr1813   2.498       .  S
O1801      C1802   1.303       .  A
C1802      C2314   1.497       .  S
O1803     Zr1806   2.384       .  S
O1803      C1805   1.277       .  A
O1804     Zr1812   2.524       .  S
O1804      C1805   1.308       .  A
C1805      C2344   1.511       .  S
Zr1806     O1814   2.355       .  S
Zr1806     O1815   2.346       .  S
Zr1806     O1818   2.361       .  S
Zr1806     O1816   2.361       .  S
Zr1806     O1807   2.437       .  S
Zr1806     O2632   2.429       .  S
O1807      H1827   0.990       .  S
O1807      H1832   0.990       .  S
O1808     Zr2630   2.429   1_545  S
O1808      H1828   0.990       .  S
Zr1809     O1815   2.358       .  S
Zr1809     O1814   2.349       .  S
Zr1809     O1819   2.350       .  S
Zr1809     O1817   2.370       .  S
Zr1809     O1810   2.432       .  S
Zr1809     O1811   2.427       .  S
O1810      H1826   0.990       .  S
O1811      H1825   0.990       .  S
O1811      H1835   0.990       .  S
Zr1812     O1815   2.388       .  S
Zr1812     O1817   2.405       .  S
Zr1812     O1818   2.403       .  S
Zr1813     O1814   2.397       .  S
Zr1813     O1816   2.397       .  S
Zr1813     O1819   2.410       .  S
O1814      H1822   0.965       .  S
O1817      H1821   0.966       .  S
O1818      H1823   0.965       .  S
C1836      C2274   1.617       .  S
C1836      C2287   1.591       .  S
C1836      C2294   1.634       .  S
C1836      C2307   1.633       .  S
C1837      C2234   1.617       .  S
C1837      C2247   1.641       .  S
C1837      C2257   1.626       .  S
C1837      C2267   1.664       .  S
C1838      C2194   1.599       .  S
C1838      C2204   1.624       .  S
C1838      C2217   1.637       .  S
C1838      C2227   1.630       .  S
O1840     Zr1877   2.415       .  S
O1840      C1841   1.290       .  A
O1843     Zr1878   2.470       .  S
O1843      C1844   1.301   1_545  A
O1846     Zr1877   2.438       .  S
O1846      C1847   1.288       .  A
O1849     Zr1878   2.501       .  S
O1849      C1850   1.301       .  A
Zr1851     O1857   2.377       .  S
Zr1851     O1858   2.323       .  S
Zr1851     O1881   2.337       .  S
Zr1851     O1883   2.395       .  S
Zr1851     O1853   2.414       .  S
O1852      H1895   0.990       .  S
O1853      H1894   0.985       .  S
Zr1854     O1858   2.383       .  S
Zr1854     O1857   2.329       .  S
Zr1854     O1882   2.333       .  S
Zr1854     O1884   2.394       .  S
Zr1854     O2680   2.428   1_545  S
O1855      H1896   0.990       .  S
O1855      H1899   0.990       .  S
O1856     Zr2678   2.428       .  S
O1856      H1889   0.989       .  S
O1857     Zr1877   2.369       .  S
O1858     Zr1878   2.376       .  S
O1859     Zr1871   2.343       .  S
O1859      C1861   1.268       .  A
O1860     Zr1878   2.487       .  S
O1860      C1861   1.304       .  A
C1861      C2035   1.452       .  S
O1862     Zr1874   2.456   1_565  S
O1862      C1864   1.294       .  A
O1863     Zr1877   2.402       .  S
O1863      C1864   1.281   1_545  A
C1864      C2620   1.446       .  S
O1865     Zr1874   2.489   1_565  S
O1865      C1867   1.297       .  A
O1866     Zr1878   2.442       .  S
O1866      C1867   1.291   1_545  A
C1867      C3078   1.502       .  S
O1868     Zr1871   2.416       .  S
O1868      C1870   1.282       .  A
O1869     Zr1877   2.473       .  S
O1869      C1870   1.295       .  A
C1870      C2277   1.500       .  S
Zr1871     O1879   2.374       .  S
Zr1871     O1880   2.343       .  S
Zr1871     O1883   2.345       .  S
Zr1871     O1881   2.385       .  S
Zr1871     O1872   2.435       .  S
Zr1871     O1873   2.432       .  S
O1872      H1892   0.990       .  S
O1872      H1897   0.990       .  S
O1873      H1893   0.990       .  S
Zr1874     O1880   2.382       .  S
Zr1874     O1879   2.355       .  S
Zr1874     O1884   2.362       .  S
Zr1874     O1882   2.369       .  S
Zr1874     O1875   2.433   1_545  S
Zr1874     O2700   2.428   1_545  S
O1875      H1891   0.990   1_565  S
O1876     Zr2698   2.428       .  S
O1876      H1890   0.989       .  S
O1876      H1900   0.990       .  S
Zr1877     O1880   2.381       .  S
Zr1877     O1882   2.387       .  S
Zr1877     O1883   2.383       .  S
Zr1878     O1879   2.397       .  S
Zr1878     O1881   2.370       .  S
Zr1878     O1884   2.405       .  S
O1879      H1887   0.965       .  S
O1882      H2710   0.965   1_545  S
O1883      H1888   0.966       .  S
H1886      O2706   0.965       .  S
O1902     Zr1939   2.409   1_556  S
O1902      C1903   1.279       .  A
O1904     Zr1916   2.477       .  S
O1904      C1906   1.296       .  A
O1905     Zr1940   2.415       .  S
O1905      C1906   1.284       .  A
C1906      C2237   1.491       .  S
O1907     Zr1916   2.440       .  S
O1907      C1909   1.291   1_554  A
O1908     Zr1939   2.399   1_556  S
O1908      C1909   1.278       .  A
O1911     Zr1940   2.438       .  S
O1911      C1912   1.292       .  A
Zr1913     O1919   2.324       .  S
Zr1913     O1920   2.381       .  S
Zr1913     O1943   2.369       .  S
Zr1913     O1945   2.320       .  S
Zr1913     O1914   2.405       .  S
O1914      H1957   0.990       .  S
O1915      H1956   0.990       .  S
O1915      H1960   0.990       .  S
Zr1916     O1920   2.356       .  S
Zr1916     O1919   2.366       .  S
Zr1916     O1944   2.369       .  S
Zr1916     O1946   2.350       .  S
Zr1916     O1917   2.435       .  S
Zr1916     O1918   2.431       .  S
O1917      H1958   0.989       .  S
O1917      H1961   0.990       .  S
O1918      H1951   0.990       .  S
O1919     Zr1939   2.373       .  S
O1920     Zr1940   2.388       .  S
O1920      H1947   0.966       .  S
O1922     Zr1940   2.441       .  S
O1922      C1923   1.288       .  A
O1924     Zr1936   2.399       .  S
O1924      C1926   1.279   1_554  A
O1925     Zr1939   2.438   1_556  S
O1925      C1926   1.287       .  A
C1926      C2284   1.477       .  S
O1927     Zr1936   2.355       .  S
O1927      C1929   1.269       .  A
O1928     Zr1940   2.404       .  S
O1928      C1929   1.285       .  A
C1929      C2038   1.426       .  S
O1931     Zr1939   2.406   1_556  S
O1931      C1932   1.287       .  A
Zr1933     O1941   2.345       .  S
Zr1933     O1942   2.400       .  S
Zr1933     O1945   2.373       .  S
Zr1933     O1943   2.329       .  S
Zr1933     O1934   2.429       .  S
O1934      H1954   0.989       .  S
O1935      H1955   0.990       .  S
Zr1936     O1942   2.345       .  S
Zr1936     O1941   2.370       .  S
Zr1936     O1946   2.374       .  S
Zr1936     O1944   2.357       .  S
Zr1936     O1937   2.433       .  S
Zr1936     O1938   2.436       .  S
O1937      H1953   0.990       .  S
O1938      H1952   0.989       .  S
O1938      H1962   0.990       .  S
Zr1939     O1942   2.390       .  S
Zr1939     O1944   2.383       .  S
Zr1939     O1945   2.382       .  S
Zr1940     O1941   2.383       .  S
Zr1940     O1943   2.367       .  S
Zr1940     O1946   2.377       .  S
O1941      H1949   0.966       .  S
O1944      H1948   0.965       .  S
O1963     Zr2799   2.361       .  S
O1963      C2789   1.259       .  A
O1964     Zr2001   2.534       .  S
O1964      C1965   1.304   1_545  A
C1965      O2787   1.259       .  A
C1965      C3261   1.508   1_554  S
O1966     Zr1978   2.426       .  S
O1966      C1968   1.284       .  A
O1967     Zr2002   2.527       .  S
O1967      C1968   1.308       .  A
C1968      C2297   1.526   1_554  S
O1969     Zr1978   2.384       .  S
O1969      C1971   1.276       .  A
O1970     Zr2001   2.424       .  S
O1970      C1971   1.286       .  A
O1972     Zr2799   2.298   1_556  S
O1972      C2798   1.260   1_556  A
O1973     Zr2002   2.571       .  S
O1973      C1974   1.323   1_545  A
C1974      O2796   1.260   1_554  A
C1974      C2600   1.466   1_554  S
Zr1975     O2787   2.361   1_545  S
Zr1975     O2796   2.298   1_544  S
Zr1975     O1981   2.332       .  S
Zr1975     O1982   2.353       .  S
Zr1975     O2005   2.368       .  S
Zr1975     O2007   2.344       .  S
Zr1975     O1976   2.451   1_554  S
Zr1975     O2801   2.446   1_545  S
O1976      H2019   0.991       .  S
O1977     Zr2799   2.446       .  S
O1977      H2018   0.989       .  S
O1977      H2022   0.989       .  S
Zr1978     O1982   2.358       .  S
Zr1978     O1981   2.374       .  S
Zr1978     O2006   2.353       .  S
Zr1978     O2008   2.340       .  S
Zr1978     O1979   2.432   1_554  S
Zr1978     O1980   2.431       .  S
O1979      H2020   0.989       .  S
O1979      H2023   0.989       .  S
O1980      H2013   0.990       .  S
O1981     Zr2001   2.363       .  S
O1982     Zr2002   2.374       .  S
O1982      H2009   0.964       .  S
O1983     Zr2819   2.403       .  S
O1983      C2809   1.280       .  A
O1984     Zr2002   2.536       .  S
O1984      C1985   1.311   1_545  A
C1985      O2807   1.280       .  A
C1985      C3068   1.514       .  S
O1986     Zr1998   2.410       .  S
O1986      C1988   1.282       .  A
O1987     Zr2001   2.477       .  S
O1987      C1988   1.297       .  A
C1988      C2197   1.486       .  S
O1989     Zr1998   2.374       .  S
O1989      C1991   1.276       .  A
O1990     Zr2002   2.509       .  S
O1990      C1991   1.305       .  A
C1991      C2055   1.469       .  S
O1992     Zr2819   2.372       .  S
O1992      C2818   1.274       .  A
O1993     Zr2001   2.443       .  S
O1993      C1994   1.290   1_545  A
C1994      O2816   1.274       .  A
C1994      C2479   1.441       .  S
Zr1995     O2807   2.403   1_545  S
Zr1995     O2816   2.372   1_545  S
Zr1995     O2003   2.348       .  S
Zr1995     O2004   2.365       .  S
Zr1995     O2007   2.350       .  S
Zr1995     O2005   2.357       .  S
Zr1995     O1996   2.437   1_545  S
Zr1995     O2821   2.435   1_545  S
O1996      H2016   0.989   1_565  S
O1996      H2845   0.989       .  S
O1997     Zr2819   2.435       .  S
O1997      H2017   0.990       .  S
Zr1998     O2004   2.346       .  S
Zr1998     O2003   2.356       .  S
Zr1998     O2008   2.372       .  S
Zr1998     O2006   2.342       .  S
Zr1998     O1999   2.434       .  S
Zr1998     O2000   2.427       .  S
O1999      H2015   0.990       .  S
O2000      H2014   0.990       .  S
O2000      H2024   0.989       .  S
Zr2001     O2004   2.395       .  S
Zr2001     O2006   2.408       .  S
Zr2001     O2007   2.391       .  S
Zr2002     O2003   2.414       .  S
Zr2002     O2005   2.394       .  S
Zr2002     O2008   2.418       .  S
O2003      H2011   0.964       .  S
O2006      H2010   0.966       .  S
O2007      H2836   0.966   1_545  S
H2012      O2831   0.966       .  S
H2021      O2820   0.989       .  S
C2025      C2184   1.641       .  S
C2025      C2337   1.628       .  S
C2025      C2377   1.607       .  S
C2025      C2394   1.612       .  S
C2026      C2174   1.646       .  S
C2026      C2317   1.614       .  S
C2026      C2387   1.611       .  S
C2026      C2417   1.623       .  S
O2027     Zr2039   2.453       .  S
O2027      C2029   1.288       .  A
O2028     Zr2065   2.521       .  S
O2028      C2029   1.304       .  A
C2029      C2177   1.548       .  S
O2030     Zr2042   2.434       .  S
O2030      C2032   1.283       .  A
O2031     Zr2066   2.476       .  S
O2031      C2032   1.293       .  A
C2032      C2157   1.527       .  S
O2033     Zr2042   2.344       .  S
O2033      C2035   1.269       .  A
O2034     Zr2065   2.488       .  S
O2034      C2035   1.305       .  A
O2036     Zr2039   2.356       .  S
O2036      C2038   1.273       .  A
O2037     Zr2066   2.417       .  S
O2037      C2038   1.290       .  A
Zr2039     O2045   2.332       .  S
Zr2039     O2046   2.385       .  S
Zr2039     O2069   2.396       .  S
Zr2039     O2071   2.346       .  S
Zr2039     O2040   2.433       .  S
Zr2039     O2041   2.432       .  S
O2040      H2083   0.990       .  S
O2041      H2082   0.990       .  S
O2041      H2086   0.990       .  S
Zr2042     O2046   2.328       .  S
Zr2042     O2045   2.383       .  S
Zr2042     O2070   2.384       .  S
Zr2042     O2072   2.332       .  S
Zr2042     O2043   2.432       .  S
Zr2042     O2044   2.418       .  S
O2043      H2084   0.990       .  S
O2043      H2087   0.990       .  S
O2044      H2077   0.990       .  S
O2045     Zr2065   2.381       .  S
O2046     Zr2066   2.391       .  S
O2046      H2073   0.966       .  S
O2047     Zr2059   2.456       .  S
O2047      C2049   1.289       .  A
O2048     Zr2066   2.487       .  S
O2048      C2049   1.298       .  A
C2049      C2187   1.516       .  S
O2050     Zr2062   2.498       .  S
O2050      C2052   1.299       .  A
O2051     Zr2065   2.480       .  S
O2051      C2052   1.296       .  A
C2052      C2164   1.553       .  S
O2053     Zr2062   2.463       .  S
O2053      C2055   1.295       .  A
O2054     Zr2066   2.434       .  S
O2054      C2055   1.287       .  A
O2056     Zr2059   2.384       .  S
O2056      C2058   1.276       .  A
O2057     Zr2065   2.488       .  S
O2057      C2058   1.303       .  A
C2058      C2111   1.471       .  S
Zr2059     O2067   2.362       .  S
Zr2059     O2068   2.383       .  S
Zr2059     O2071   2.391       .  S
Zr2059     O2069   2.348       .  S
Zr2059     O2060   2.427       .  S
Zr2059     O2061   2.430       .  S
O2060      H2080   0.989       .  S
O2060      H2085   0.990       .  S
O2061      H2081   0.990       .  S
Zr2062     O2068   2.359       .  S
Zr2062     O2067   2.390       .  S
Zr2062     O2072   2.369       .  S
Zr2062     O2070   2.358       .  S
Zr2062     O2063   2.433       .  S
Zr2062     O2064   2.430       .  S
O2063      H2079   0.990       .  S
O2064      H2078   0.989       .  S
O2064      H2088   0.989       .  S
Zr2065     O2068   2.397       .  S
Zr2065     O2070   2.404       .  S
Zr2065     O2071   2.393       .  S
Zr2066     O2067   2.397       .  S
Zr2066     O2069   2.399       .  S
Zr2066     O2072   2.381       .  S
O2067      H2075   0.966       .  S
O2070      H2074   0.966       .  S
O2071      H2076   0.966       .  S
O2089     Zr2101   2.375       .  S
O2089      C2091   1.276       .  A
O2090     Zr2127   2.411       .  S
O2090      C2091   1.288       .  A
O2092     Zr2104   2.329       .  S
O2092      C2094   1.266       .  A
O2093     Zr2128   2.472       .  S
O2093      C2094   1.301       .  A
O2095     Zr2104   2.413       .  S
O2095      C2097   1.280       .  A
O2096     Zr2127   2.491       .  S
O2096      C2097   1.300       .  A
C2097      C2457   1.502       .  S
O2098     Zr2101   2.452       .  S
O2098      C2100   1.289       .  A
O2099     Zr2128   2.518       .  S
O2099      C2100   1.305       .  A
C2100      C2224   1.535       .  S
Zr2101     O2107   2.386       .  S
Zr2101     O2108   2.337       .  S
Zr2101     O2131   2.349       .  S
Zr2101     O2133   2.390       .  S
Zr2101     O2102   2.432       .  S
Zr2101     O2103   2.414       .  S
O2102      H2145   0.990       .  S
O2103      H2144   0.987       .  S
O2103      H2148   0.990       .  S
Zr2104     O2108   2.376       .  S
Zr2104     O2107   2.331       .  S
Zr2104     O2132   2.338       .  S
Zr2104     O2134   2.387       .  S
Zr2104     O2105   2.437       .  S
Zr2104     O2106   2.422       .  S
O2105      H2146   0.990       .  S
O2105      H2149   0.990       .  S
O2106      H2139   0.988       .  S
O2107     Zr2127   2.387       .  S
O2108     Zr2128   2.391       .  S
O2108      H2135   0.965       .  S
O2109     Zr2121   2.389       .  S
O2109      C2111   1.277       .  A
O2110     Zr2128   2.487       .  S
O2110      C2111   1.304       .  A
O2112     Zr2124   2.466       .  S
O2112      C2114   1.297       .  A
O2113     Zr2127   2.447       .  S
O2113      C2114   1.289       .  A
O2115     Zr2124   2.503       .  S
O2115      C2117   1.301       .  A
O2116     Zr2128   2.485       .  S
O2116      C2117   1.297       .  A
C2117      C2264   1.556       .  S
O2118     Zr2121   2.438       .  S
O2118      C2120   1.287       .  A
O2119     Zr2127   2.493       .  S
O2119      C2120   1.300       .  A
C2120      C2304   1.516       .  S
Zr2121     O2129   2.375       .  S
Zr2121     O2130   2.359       .  S
Zr2121     O2133   2.353       .  S
Zr2121     O2131   2.390       .  S
Zr2121     O2122   2.432       .  S
Zr2121     O2123   2.434       .  S
O2122      H2142   0.990       .  S
O2122      H2147   0.990       .  S
O2123      H2143   0.990       .  S
Zr2124     O2130   2.383       .  S
Zr2124     O2129   2.358       .  S
Zr2124     O2134   2.359       .  S
Zr2124     O2132   2.372       .  S
Zr2124     O2125   2.434       .  S
Zr2124     O2126   2.415       .  S
O2125      H2141   0.990       .  S
O2126      H2140   0.990       .  S
O2126      H2150   0.985       .  S
Zr2127     O2130   2.394       .  S
Zr2127     O2132   2.380       .  S
Zr2127     O2133   2.404       .  S
Zr2128     O2129   2.402       .  S
Zr2128     O2131   2.388       .  S
Zr2128     O2134   2.396       .  S
O2129      H2137   0.966       .  S
O2132      H2136   0.965       .  S
O2133      H2138   0.966       .  S
C2151      C2167   1.651       .  S
C2151      C2347   1.636       .  S
C2151      C2357   1.615       .  S
C2151      C2424   1.625       .  S
C2152      C2154   1.619       .  S
C2152      C2327   1.639       .  S
C2152      C2367   1.603       .  S
C2152      C2404   1.594       .  S
C2153      C2154   1.434       .  A
C2153      C2158   1.393       .  A
C2153     Br2160   1.941       .  S
C2154      C2155   1.454       .  A
C2155      C2156   1.440       .  A
C2155     Br2162   1.944       .  S
C2156      C2157   1.422       .  A
C2156     Br2161   1.930       .  S
C2157      C2158   1.413       .  A
C2158     Br2159   1.935       .  S
C2163      C2164   1.415       .  A
C2163      C2168   1.412       .  A
C2163     Br2170   1.937       .  S
C2164      C2165   1.430       .  A
C2165      C2166   1.448       .  A
C2165     Br2172   1.934       .  S
C2166      C2167   1.449       .  A
C2166     Br2171   1.928       .  S
C2167      C2168   1.451       .  A
C2168     Br2169   1.946       .  S
C2173      C2174   1.441       .  A
C2173      C2178   1.408       .  A
C2173     Br2180   1.941       .  S
C2174      C2175   1.460       .  A
C2175      C2176   1.449       .  A
C2175     Br2182   1.933       .  S
C2176      C2177   1.422       .  A
C2176     Br2181   1.928       .  S
C2177      C2178   1.415       .  A
C2178     Br2179   1.930       .  S
C2183      C2184   1.458       .  A
C2183      C2188   1.424       .  A
C2183     Br2190   1.930       .  S
C2184      C2185   1.462       .  A
C2185      C2186   1.433       .  A
C2185     Br2192   1.939       .  S
C2186      C2187   1.403       .  A
C2186     Br2191   1.933       .  S
C2187      C2188   1.400       .  A
C2188     Br2189   1.939       .  S
C2193      C2194   1.436       .  A
C2193      C2198   1.414       .  A
C2193     Br2200   1.918       .  S
C2194      C2195   1.446       .  A
C2195      C2196   1.419       .  A
C2195     Br2202   1.917       .  S
C2196      C2197   1.402       .  A
C2196     Br2201   1.939       .  S
C2197      C2198   1.394       .  A
C2198     Br2199   1.926       .  S
C2203      C2204   1.436       .  A
C2203      C2208   1.398       .  A
C2203     Br2210   1.939       .  S
C2204      C2205   1.456       .  A
C2205      C2206   1.427       .  A
C2205     Br2212   1.940       .  S
C2206      C2207   1.400       .  A
C2206     Br2211   1.923       .  S
C2207      C2208   1.390       .  A
C2213      C2214   1.425       .  A
C2213      C2218   1.412       .  A
C2213     Br2220   1.941       .  S
C2214      C2215   1.411       .  A
C2215      C2216   1.428       .  A
C2216      C2217   1.452       .  A
C2216     Br2221   1.932       .  S
C2217      C2218   1.441       .  A
C2218     Br2219   1.951       .  S
C2223      C2224   1.407       .  A
C2223      C2228   1.435       .  A
C2223     Br2230   1.932       .  S
C2224      C2225   1.415       .  A
C2225      C2226   1.429       .  A
C2225     Br2232   1.927       .  S
C2226      C2227   1.451       .  A
C2226     Br2231   1.952       .  S
C2227      C2228   1.459       .  A
C2228     Br2229   1.941       .  S
C2233      C2234   1.460       .  A
C2233      C2238   1.412       .  A
C2233     Br2240   1.936       .  S
C2234      C2235   1.452       .  A
C2235      C2236   1.426       .  A
C2235     Br2242   1.931       .  S
C2236      C2237   1.401       .  A
C2236     Br2241   1.927       .  S
C2237      C2238   1.389       .  A
C2238     Br2239   1.932       .  S
C2243      C2244   1.421       .  A
C2243      C2248   1.432       .  A
C2243     Br2250   1.933       .  S
C2244      C2809   1.514       .  S
C2244      C2245   1.391       .  A
C2245      C2246   1.416       .  A
C2245     Br2252   1.939       .  S
C2246      C2247   1.467       .  A
C2246     Br2251   1.945       .  S
C2247      C2248   1.440       .  A
C2248     Br2249   1.933       .  S
C2253      C2254   1.395       .  A
C2253      C2258   1.420       .  A
C2253     Br2260   1.938       .  S
C2254      C2691   1.502       .  S
C2254      C3079   1.402       .  A
C2255      C3078   1.402       .  A
C2255      C3080   1.426       .  A
C2255     Br2262   1.935   1_565  S
C2256      C3079   1.426       .  A
C2256      C2257   1.458       .  A
C2256     Br3085   1.926       .  S
C2257      C2258   1.459       .  A
C2258     Br2259   1.923       .  S
Br2261     C3080   1.926   1_545  S
C2263      C2264   1.409       .  A
C2263      C2268   1.433       .  A
C2263     Br2270   1.948       .  S
C2264      C2265   1.420       .  A
C2265      C2266   1.444       .  A
C2265     Br2272   1.937       .  S
C2266      C2267   1.452       .  A
C2266     Br2271   1.920       .  S
C2267      C2268   1.472       .  A
C2268     Br2269   1.944       .  S
C2273      C2274   1.451       .  A
C2273      C2278   1.424       .  A
C2273     Br2280   1.917       .  S
C2274      C2275   1.452       .  A
C2275      C2276   1.420       .  A
C2275     Br2282   1.928       .  S
C2276      C2277   1.405       .  A
C2276     Br2281   1.945       .  S
C2277      C2278   1.401       .  A
C2278     Br2279   1.938       .  S
C2283      C2284   1.403       .  A
C2283      C2288   1.410       .  A
C2283     Br2290   1.940       .  S
C2284      C2285   1.389       .  A
C2285      C2286   1.403       .  A
C2285     Br2292   1.935       .  S
C2286      C2287   1.459       .  A
C2286     Br2291   1.950       .  S
C2287      C2288   1.445       .  A
C2288     Br2289   1.938       .  S
C2293      C2294   1.466       .  A
C2293      C2298   1.436       .  A
C2293     Br2300   1.923       .  S
C2294      C2295   1.443       .  A
C2295      C2296   1.407       .  A
C2295     Br2302   1.937       .  S
C2296      C2297   1.409       .  A
C2296     Br2301   1.927       .  S
C2297      C2298   1.404       .  A
C2298     Br2299   1.928   1_556  S
C2303      C2304   1.410       .  A
C2303      C2308   1.426       .  A
C2303     Br2310   1.936       .  S
C2304      C2305   1.401       .  A
C2305      C2306   1.426       .  A
C2305     Br2312   1.943       .  S
C2306      C2307   1.466       .  A
C2306     Br2311   1.946       .  S
C2307      C2308   1.449       .  A
C2308     Br2309   1.935       .  S
C2313      C2314   1.411       .  A
C2313      C2318   1.422       .  A
C2313     Br2320   1.937       .  S
C2314      C2315   1.393       .  A
C2315      C2316   1.418       .  A
C2315     Br2322   1.942       .  S
C2316      C2317   1.463       .  A
C2316     Br2321   1.943       .  S
C2317      C2318   1.442       .  A
C2318     Br2319   1.934       .  S
C2323      C2324   1.413   1_554  A
C2323      C3152   1.426       .  A
C2323     Br2330   1.937   1_554  S
C2324      C3149   1.432   1_556  A
C2325      C3148   1.432   1_554  A
C2325      C2326   1.416       .  A
C2325     Br2332   1.930   1_554  S
C2326      C2327   1.418       .  A
C2326     Br2331   1.938       .  S
C2327      C2328   1.439   1_545  A
C2328      C3147   1.426       .  A
C2328     Br2329   1.923       .  S
C2333      C2334   1.404   1_554  A
C2333      C2338   1.425       .  A
C2333     Br2340   1.940       .  S
C2334      C2335   1.396       .  A
C2335      C2336   1.421   1_556  A
C2335     Br2342   1.940       .  S
C2336      C2337   1.465       .  A
C2336     Br2341   1.944   1_554  S
C2337      C2338   1.450       .  A
C2338     Br2339   1.927       .  S
C2343      C3168   1.393   1_545  A
C2343      C2348   1.416       .  A
C2343     Br3174   1.938       .  S
C2344      C3167   1.393       .  A
C2344      C2345   1.420       .  A
C2345      C3170   1.429       .  A
C2345     Br2352   1.935       .  S
C2346      C3169   1.429   1_545  A
C2346      C2347   1.437       .  A
C2346     Br2351   1.928       .  S
C2347      C2348   1.464       .  A
C2348     Br2349   1.943       .  S
Br2350     C3167   1.938       .  S
C2353      C2354   1.402       .  A
C2353      C2358   1.430       .  A
C2353     Br2360   1.929       .  S
C2354      C2355   1.388       .  A
C2355      C2356   1.409       .  A
C2355     Br2362   1.922       .  S
C2356      C2357   1.456       .  A
C2356     Br2361   1.932       .  S
C2357      C2358   1.451       .  A
C2358     Br2359   1.920       .  S
C2363      C2364   1.390   1_655  A
C2363     Br2370   1.946   1_554  S
C2364      C2365   1.386       .  A
C2365     Br2372   1.927       .  S
C2366      C2367   1.453       .  A
C2366     Br2371   1.939       .  S
C2367      C2368   1.451       .  A
C2368     Br2369   1.915       .  S
C2373      C2374   1.393       .  A
C2373      C2378   1.414       .  A
C2373     Br2380   1.944       .  S
C2374      C2375   1.400       .  A
C2375      C2376   1.414       .  A
C2375     Br2382   1.941   1_554  S
C2376      C2377   1.449       .  A
C2376     Br2381   1.931       .  S
C2377      C2378   1.463       .  A
C2378     Br2379   1.939       .  S
C2383      C2388   1.422       .  A
C2383     Br2390   1.933       .  S
C2384      C2385   1.388       .  A
C2385      C2386   1.409   1_655  A
C2385     Br2392   1.940       .  S
C2386     Br2391   1.925   1_455  S
C2387      C2388   1.452       .  A
C2388     Br2389   1.919       .  S
C2393      C2394   1.437       .  A
C2393      C2398   1.400       .  A
C2393     Br2400   1.947       .  S
C2394      C2395   1.455       .  A
C2395      C2396   1.433       .  A
C2395     Br2402   1.927       .  S
C2396      C2397   1.414       .  A
C2396     Br2401   1.937       .  S
C2397      C2398   1.418       .  A
C2398     Br2399   1.935       .  S
C2403      C2404   1.440       .  A
C2403      C3232   1.415   1_545  A
C2403     Br2410   1.935   1_545  S
C2405      C2406   1.406   1_455  A
C2405     Br2412   1.942   1_455  S
C2406      C3231   1.396   1_645  A
C2406     Br2411   1.929       .  S
C2407      C3230   1.396   1_455  A
C2408      C3227   1.415       .  A
C2408     Br2409   1.924       .  S
C2413      C2414   1.393   1_455  A
C2413     Br2420   1.931       .  S
C2414      C2415   1.399       .  A
C2415      C2416   1.418   1_655  A
C2415     Br2422   1.925       .  S
C2416     Br2421   1.946       .  S
C2417      C2418   1.462       .  A
C2418     Br2419   1.938       .  S
C2423      C2424   1.456   1_565  A
C2423      C3252   1.424       .  A
C2423     Br3254   1.924       .  S
C2424      C2425   1.459       .  A
C2425      C2426   1.421       .  A
C2425     Br2432   1.934       .  S
C2426      C3251   1.397   1_545  A
C2426     Br2431   1.940       .  S
C2427      C3250   1.397       .  A
C2427      C2428   1.400       .  A
C2428      C3247   1.424       .  A
C2428     Br2429   1.937       .  S
Br2430     C3247   1.924       .  S
C2433      C2434   1.444       .  A
C2433      C2438   1.419       .  A
C2433     Br2440   1.940       .  S
C2434      C2435   1.459       .  A
C2435      C2436   1.416       .  A
C2435     Br2442   1.930       .  S
C2436      C2437   1.390       .  A
C2436     Br3265   1.929   1_556  S
C2437      C2789   1.508   1_556  S
C2437      C2438   1.425       .  A
C2438     Br2439   1.943       .  S
Br2441     C3260   1.929   1_554  S
C2443      C2444   1.450       .  A
C2443     Br2450   1.939   1_655  S
C2444      C2445   1.452       .  A
C2445      C3270   1.416       .  A
C2445     Br3276   1.939       .  S
C2446      C3269   1.416       .  A
C2446      C2447   1.393       .  A
C2446     Br2451   1.919   1_565  S
C2448     Br2449   1.934       .  S
Br2452     C3269   1.939       .  S
C2453      C2454   1.463       .  A
C2453      C2458   1.417       .  A
C2453     Br2460   1.931       .  S
C2454      C2455   1.444       .  A
C2455      C2456   1.413       .  A
C2455     Br2462   1.927       .  S
C2456      C2457   1.406       .  A
C2456     Br2461   1.926       .  S
C2457      C2458   1.394       .  A
C2458     Br2459   1.924       .  S
C2463      C2464   1.441       .  A
C2463      C2468   1.426       .  A
C2463     Br2470   1.943       .  S
C2464      C2465   1.425       .  A
C2465      C2466   1.371       .  A
C2465     Br2472   1.944       .  S
C2466      C2467   1.406       .  A
C2466     Br2471   1.933   1_556  S
C2467      C2468   1.423       .  A
C2473      C3258   1.611       .  S
C2473      C3268   1.606       .  S
C2473      C3278   1.622       .  S
C2473      C3288   1.577       .  S
O2474     Zr2486   2.336       .  S
O2474      C2476   1.267       .  A
O2475     Zr2512   2.470       .  S
O2475      C2476   1.300       .  A
O2477     Zr2489   2.434       .  S
O2477      C2479   1.290       .  A
O2478     Zr2513   2.406       .  S
O2478      C2479   1.282       .  A
O2480     Zr2489   2.475       .  S
O2480      C2482   1.294       .  A
O2481     Zr2512   2.442       .  S
O2481      C2482   1.292       .  A
C2482      C3251   1.500       .  S
O2483     Zr2486   2.416       .  S
O2483      C2485   1.282       .  A
O2484     Zr2513   2.451       .  S
O2484      C2485   1.291       .  A
C2485      C3231   1.486   1_655  S
Zr2486     O2492   2.381       .  S
Zr2486     O2493   2.332       .  S
Zr2486     O2516   2.334       .  S
Zr2486     O2518   2.376       .  S
O2487      H2530   0.990       .  S
O2488      H2529   0.990       .  S
O2488      H2533   0.990       .  S
Zr2489     O2493   2.380       .  S
Zr2489     O2492   2.360       .  S
Zr2489     O2517   2.335       .  S
Zr2489     O2519   2.369       .  S
Zr2489     O2491   2.435       .  S
O2490      H2531   0.987       .  S
O2490      H2534   0.990       .  S
O2491      H2524   0.990       .  S
O2492     Zr2512   2.390       .  S
O2493     Zr2513   2.393       .  S
O2493      H2520   0.966       .  S
O2494     Zr2506   2.357       .  S
O2494      C2496   1.269       .  A
O2495     Zr2513   2.412       .  S
O2495      C2496   1.290       .  A
O2497     Zr2509   2.334       .  S
O2497      C2499   1.266       .  A
O2498     Zr2512   2.472       .  S
O2498      C2499   1.302       .  A
C2499      C2918   1.440       .  S
O2500     Zr2509   2.409       .  S
O2500      C2502   1.278       .  A
O2501     Zr2513   2.489       .  S
O2501      C2502   1.297       .  A
C2502      C3221   1.516       .  S
O2503     Zr2506   2.424       .  S
O2503      C2505   1.282       .  A
O2504     Zr2512   2.482       .  S
O2504      C2505   1.298       .  A
C2505      C3238   1.498       .  S
Zr2506     O2514   2.392       .  S
Zr2506     O2515   2.328       .  S
Zr2506     O2518   2.339       .  S
Zr2506     O2516   2.383       .  S
Zr2506     O2507   2.416       .  S
O2507      H2527   0.984       .  S
O2507      H2532   0.988       .  S
O2508      H2528   0.991       .  S
Zr2509     O2515   2.388       .  S
Zr2509     O2514   2.356       .  S
Zr2509     O2519   2.335       .  S
Zr2509     O2517   2.369       .  S
Zr2509     O2510   2.434       .  S
Zr2509     O2511   2.438       .  S
O2510      H2526   0.990       .  S
O2511      H2525   0.990       .  S
O2511      H2535   0.990       .  S
Zr2512     O2515   2.375       .  S
Zr2512     O2517   2.392       .  S
Zr2512     O2518   2.378       .  S
Zr2513     O2514   2.386       .  S
Zr2513     O2516   2.378       .  S
Zr2513     O2519   2.384       .  S
O2514      H2522   0.966       .  S
O2517      H2521   0.965       .  S
O2518      H2523   0.965       .  S
O2536     Zr2548   2.364       .  S
O2536      C2538   1.273       .  A
O2537     Zr2574   2.401       .  S
O2537      C2538   1.286       .  A
O2539     Zr2551   2.367       .  S
O2539      C2541   1.275       .  A
O2540     Zr2575   2.419       .  S
O2540      C2541   1.289       .  A
C2541      C2915   1.432       .  S
O2542     Zr2551   2.403       .  S
O2542      C2544   1.279       .  A
O2543     Zr2574   2.448       .  S
O2543      C2544   1.290       .  A
C2544      C3198   1.477   1_556  S
O2545     Zr2548   2.435       .  S
O2545      C2547   1.285       .  A
O2546     Zr2575   2.440       .  S
O2546      C2547   1.288       .  A
C2547      C3208   1.481       .  S
Zr2548     O2554   2.381       .  S
Zr2548     O2555   2.333       .  S
Zr2548     O2578   2.335       .  S
Zr2548     O2580   2.381       .  S
Zr2548     O2549   2.432       .  S
O2549      H2592   0.990       .  S
O2550      H2591   0.989       .  S
O2550      H2595   0.989       .  S
Zr2551     O2555   2.391       .  S
Zr2551     O2554   2.354       .  S
Zr2551     O2579   2.345       .  S
Zr2551     O2581   2.366       .  S
Zr2551     O2552   2.429       .  S
Zr2551     O2553   2.435       .  S
O2552      H2593   0.988       .  S
O2552      H2596   0.989       .  S
O2553      H2586   0.989       .  S
O2554     Zr2574   2.381       .  S
O2555     Zr2575   2.386       .  S
O2555      H2582   0.966       .  S
O2556     Zr2568   2.302       .  S
O2556      C2558   1.262       .  A
O2557     Zr2575   2.423       .  S
O2557      C2558   1.289       .  A
O2559     Zr2571   2.424       .  S
O2559      C2561   1.287       .  A
O2560     Zr2574   2.401       .  S
O2560      C2561   1.281       .  A
C2561      C2795   1.435   1_556  S
O2562     Zr2571   2.487       .  S
O2562      C2564   1.297       .  A
O2563     Zr2575   2.419       .  S
O2563      C2564   1.285       .  A
C2564      C3178   1.496       .  S
O2565     Zr2568   2.398       .  S
O2565      C2567   1.277       .  A
O2566     Zr2574   2.435       .  S
O2566      C2567   1.287       .  A
C2567      C3188   1.464   1_656  S
Zr2568     O2576   2.383       .  S
Zr2568     O2577   2.331       .  S
Zr2568     O2580   2.319       .  S
Zr2568     O2578   2.369       .  S
Zr2568     O2569   2.430       .  S
O2569      H2589   0.989       .  S
O2569      H2594   0.990       .  S
O2570      H2590   0.990       .  S
Zr2571     O2577   2.382       .  S
Zr2571     O2576   2.349       .  S
Zr2571     O2581   2.345       .  S
Zr2571     O2579   2.381       .  S
Zr2571     O2572   2.432       .  S
Zr2571     O2573   2.432       .  S
O2572      H2588   0.990       .  S
O2573      H2587   0.990       .  S
O2573      H2597   0.990       .  S
Zr2574     O2577   2.382       .  S
Zr2574     O2579   2.391       .  S
Zr2574     O2580   2.374       .  S
Zr2575     O2576   2.391       .  S
Zr2575     O2578   2.362       .  S
Zr2575     O2581   2.378       .  S
O2576      H2584   0.966       .  S
O2579      H2583   0.966       .  S
O2580      H2585   0.965       .  S
O2598     Zr2610   2.321       .  S
O2598      C2600   1.262       .  A
O2599     Zr2636   2.558       .  S
O2599      C2600   1.322       .  A
O2601     Zr2613   2.358       .  S
O2601      C2603   1.272       .  A
O2602     Zr2637   2.465       .  S
O2602      C2603   1.294       .  A
C2603      C2733   1.444       .  S
O2604     Zr2613   2.427       .  S
O2604      C2606   1.284       .  A
O2605     Zr2636   2.490       .  S
O2605      C2606   1.301       .  A
C2606      C3158   1.501       .  S
O2607     Zr2610   2.405       .  S
O2607      C2609   1.269       .  A
O2608     Zr2637   2.517       .  S
O2608      C2609   1.299       .  A
C2609      C3148   1.537   1_565  S
Zr2610     O2616   2.367       .  S
Zr2610     O2617   2.349       .  S
Zr2610     O2640   2.343       .  S
Zr2610     O2642   2.388       .  S
Zr2610     O2611   2.438   1_556  S
O2611      H2654   0.990       .  S
O2612      H2653   0.985       .  S
O2612      H2657   0.989       .  S
Zr2613     O2617   2.382       .  S
Zr2613     O2616   2.328       .  S
Zr2613     O2641   2.344       .  S
Zr2613     O2643   2.373       .  S
Zr2613     O2614   2.433   1_556  S
Zr2613     O2615   2.435       .  S
O2614      H2655   0.990       .  S
O2614      H2658   0.990       .  S
O2615      H2648   0.990       .  S
O2616     Zr2636   2.365       .  S
O2617     Zr2637   2.398       .  S
O2617      H2644   0.965       .  S
O2618     Zr2630   2.379       .  S
O2618      C2620   1.274       .  A
O2619     Zr2637   2.456       .  S
O2619      C2620   1.293       .  A
O2621     Zr2633   2.372       .  S
O2621      C2623   1.274       .  A
O2622     Zr2636   2.515       .  S
O2622      C2623   1.305       .  A
C2623      C2938   1.475       .  S
O2624     Zr2633   2.405       .  S
O2624      C2626   1.281       .  A
O2625     Zr2637   2.498       .  S
O2625      C2626   1.303       .  A
C2626      C3138   1.497       .  S
O2627     Zr2630   2.384       .  S
O2627      C2629   1.277       .  A
O2628     Zr2636   2.524       .  S
O2628      C2629   1.308       .  A
C2629      C3168   1.511       .  S
Zr2630     O2638   2.355       .  S
Zr2630     O2639   2.346       .  S
Zr2630     O2642   2.361       .  S
Zr2630     O2640   2.361       .  S
Zr2630     O2631   2.437       .  S
O2631      H2651   0.990       .  S
O2631      H2656   0.990       .  S
O2632      H2652   0.990       .  S
Zr2633     O2639   2.358       .  S
Zr2633     O2638   2.349       .  S
Zr2633     O2643   2.350       .  S
Zr2633     O2641   2.370       .  S
Zr2633     O2634   2.432       .  S
Zr2633     O2635   2.427       .  S
O2634      H2650   0.990       .  S
O2635      H2649   0.990       .  S
O2635      H2659   0.990       .  S
Zr2636     O2639   2.388       .  S
Zr2636     O2641   2.405       .  S
Zr2636     O2642   2.403       .  S
Zr2637     O2638   2.397       .  S
Zr2637     O2640   2.397       .  S
Zr2637     O2643   2.410       .  S
O2638      H2646   0.965       .  S
O2641      H2645   0.966       .  S
O2642      H2647   0.965       .  S
C2660      C3098   1.617       .  S
C2660      C3111   1.591       .  S
C2660      C3118   1.634       .  S
C2660      C3131   1.633       .  S
C2661      C3058   1.617       .  S
C2661      C3071   1.641       .  S
C2661      C3081   1.626       .  S
C2661      C3091   1.664       .  S
C2662      C3018   1.599       .  S
C2662      C3028   1.624       .  S
C2662      C3041   1.637       .  S
C2662      C3051   1.630       .  S
O2664     Zr2701   2.415       .  S
O2664      C2665   1.290       .  A
O2667     Zr2702   2.470       .  S
O2667      C2668   1.301       .  A
O2670     Zr2701   2.438       .  S
O2670      C2671   1.288       .  A
O2673     Zr2702   2.501       .  S
O2673      C2674   1.301       .  A
Zr2675     O2681   2.377       .  S
Zr2675     O2682   2.323       .  S
Zr2675     O2705   2.337       .  S
Zr2675     O2707   2.395       .  S
Zr2675     O2677   2.414       .  S
O2676      H2719   0.990       .  S
O2677      H2718   0.985       .  S
Zr2678     O2682   2.383       .  S
Zr2678     O2681   2.329       .  S
Zr2678     O2706   2.333       .  S
Zr2678     O2708   2.394       .  S
O2679      H2720   0.990       .  S
O2679      H2723   0.990       .  S
O2680      H2713   0.989       .  S
O2681     Zr2701   2.369       .  S
O2682     Zr2702   2.376       .  S
O2683     Zr2695   2.343       .  S
O2683      C2685   1.268       .  A
O2684     Zr2702   2.487       .  S
O2684      C2685   1.304       .  A
C2685      C2859   1.452       .  S
O2686     Zr2698   2.456       .  S
O2686      C2688   1.294       .  A
O2687     Zr2701   2.402       .  S
O2687      C2688   1.281       .  A
O2689     Zr2698   2.489       .  S
O2689      C2691   1.297       .  A
O2690     Zr2702   2.442       .  S
O2690      C2691   1.291       .  A
O2692     Zr2695   2.416       .  S
O2692      C2694   1.282       .  A
O2693     Zr2701   2.473       .  S
O2693      C2694   1.295       .  A
C2694      C3101   1.500       .  S
Zr2695     O2703   2.374       .  S
Zr2695     O2704   2.343       .  S
Zr2695     O2707   2.345       .  S
Zr2695     O2705   2.385       .  S
Zr2695     O2696   2.435       .  S
Zr2695     O2697   2.432       .  S
O2696      H2716   0.990       .  S
O2696      H2721   0.990       .  S
O2697      H2717   0.990       .  S
Zr2698     O2704   2.382       .  S
Zr2698     O2703   2.355       .  S
Zr2698     O2708   2.362       .  S
Zr2698     O2706   2.369       .  S
Zr2698     O2699   2.433       .  S
O2699      H2715   0.990       .  S
O2700      H2714   0.989       .  S
O2700      H2724   0.990       .  S
Zr2701     O2704   2.381       .  S
Zr2701     O2706   2.387       .  S
Zr2701     O2707   2.383       .  S
Zr2702     O2703   2.397       .  S
Zr2702     O2705   2.370       .  S
Zr2702     O2708   2.405       .  S
O2703      H2711   0.965       .  S
O2707      H2712   0.966       .  S
O2726     Zr2763   2.409   1_556  S
O2726      C2727   1.279       .  A
O2728     Zr2740   2.477       .  S
O2728      C2730   1.296       .  A
O2729     Zr2764   2.415       .  S
O2729      C2730   1.284       .  A
C2730      C3061   1.491       .  S
O2731     Zr2740   2.440       .  S
O2731      C2733   1.291   1_554  A
O2732     Zr2763   2.399   1_556  S
O2732      C2733   1.278       .  A
O2735     Zr2764   2.438       .  S
O2735      C2736   1.292       .  A
Zr2737     O2743   2.324       .  S
Zr2737     O2744   2.381       .  S
Zr2737     O2767   2.369       .  S
Zr2737     O2769   2.320       .  S
Zr2737     O2738   2.405       .  S
O2738      H2781   0.990       .  S
O2739      H2780   0.990       .  S
O2739      H2784   0.990       .  S
Zr2740     O2744   2.356       .  S
Zr2740     O2743   2.366       .  S
Zr2740     O2768   2.369       .  S
Zr2740     O2770   2.350       .  S
Zr2740     O2741   2.435       .  S
Zr2740     O2742   2.431       .  S
O2741      H2782   0.989       .  S
O2741      H2785   0.990       .  S
O2742      H2775   0.990       .  S
O2743     Zr2763   2.373       .  S
O2744     Zr2764   2.388       .  S
O2744      H2771   0.966       .  S
O2746     Zr2764   2.441       .  S
O2746      C2747   1.288       .  A
O2748     Zr2760   2.399       .  S
O2748      C2750   1.279   1_554  A
O2749     Zr2763   2.438   1_556  S
O2749      C2750   1.287       .  A
C2750      C3108   1.477       .  S
O2751     Zr2760   2.355       .  S
O2751      C2753   1.269       .  A
O2752     Zr2764   2.404       .  S
O2752      C2753   1.285       .  A
C2753      C2862   1.426       .  S
O2755     Zr2763   2.406   1_556  S
O2755      C2756   1.287       .  A
Zr2757     O2765   2.345       .  S
Zr2757     O2766   2.400       .  S
Zr2757     O2769   2.373       .  S
Zr2757     O2767   2.329       .  S
Zr2757     O2758   2.429       .  S
O2758      H2778   0.989       .  S
O2759      H2779   0.990       .  S
Zr2760     O2766   2.345       .  S
Zr2760     O2765   2.370       .  S
Zr2760     O2770   2.374       .  S
Zr2760     O2768   2.357       .  S
Zr2760     O2761   2.433       .  S
Zr2760     O2762   2.436       .  S
O2761      H2777   0.990       .  S
O2762      H2776   0.989       .  S
O2762      H2786   0.990       .  S
Zr2763     O2766   2.390       .  S
Zr2763     O2768   2.383       .  S
Zr2763     O2769   2.382       .  S
Zr2764     O2765   2.383       .  S
Zr2764     O2767   2.367       .  S
Zr2764     O2770   2.377       .  S
O2765      H2773   0.966       .  S
O2768      H2772   0.965       .  S
O2788     Zr2825   2.534       .  S
O2788      C2789   1.304       .  A
O2790     Zr2802   2.426       .  S
O2790      C2792   1.284       .  A
O2791     Zr2826   2.527       .  S
O2791      C2792   1.308       .  A
C2792      C3121   1.526   1_554  S
O2793     Zr2802   2.384       .  S
O2793      C2795   1.276       .  A
O2794     Zr2825   2.424       .  S
O2794      C2795   1.286       .  A
O2797     Zr2826   2.571       .  S
O2797      C2798   1.323       .  A
Zr2799     O2805   2.332       .  S
Zr2799     O2806   2.353       .  S
Zr2799     O2829   2.368       .  S
Zr2799     O2831   2.344       .  S
Zr2799     O2800   2.451   1_554  S
O2800      H2843   0.991       .  S
O2801      H2842   0.989       .  S
O2801      H2846   0.989       .  S
Zr2802     O2806   2.358       .  S
Zr2802     O2805   2.374       .  S
Zr2802     O2830   2.353       .  S
Zr2802     O2832   2.340       .  S
Zr2802     O2803   2.432   1_554  S
Zr2802     O2804   2.431       .  S
O2803      H2844   0.989       .  S
O2803      H2847   0.989       .  S
O2804      H2837   0.990       .  S
O2805     Zr2825   2.363       .  S
O2806     Zr2826   2.374       .  S
O2806      H2833   0.964       .  S
O2808     Zr2826   2.536       .  S
O2808      C2809   1.311       .  A
O2810     Zr2822   2.410       .  S
O2810      C2812   1.282       .  A
O2811     Zr2825   2.477       .  S
O2811      C2812   1.297       .  A
C2812      C3021   1.486       .  S
O2813     Zr2822   2.374       .  S
O2813      C2815   1.276       .  A
O2814     Zr2826   2.509       .  S
O2814      C2815   1.305       .  A
C2815      C2879   1.469       .  S
O2817     Zr2825   2.443       .  S
O2817      C2818   1.290       .  A
Zr2819     O2827   2.348       .  S
Zr2819     O2828   2.365       .  S
Zr2819     O2831   2.350       .  S
Zr2819     O2829   2.357       .  S
Zr2819     O2820   2.437       .  S
O2820      H2840   0.989       .  S
O2821      H2841   0.990       .  S
Zr2822     O2828   2.346       .  S
Zr2822     O2827   2.356       .  S
Zr2822     O2832   2.372       .  S
Zr2822     O2830   2.342       .  S
Zr2822     O2823   2.434       .  S
Zr2822     O2824   2.427       .  S
O2823      H2839   0.990       .  S
O2824      H2838   0.990       .  S
O2824      H2848   0.989       .  S
Zr2825     O2828   2.395       .  S
Zr2825     O2830   2.408       .  S
Zr2825     O2831   2.391       .  S
Zr2826     O2827   2.414       .  S
Zr2826     O2829   2.394       .  S
Zr2826     O2832   2.418       .  S
O2827      H2835   0.964       .  S
O2830      H2834   0.966       .  S
C2849      C3008   1.641       .  S
C2849      C3161   1.628       .  S
C2849      C3201   1.607       .  S
C2849      C3218   1.612       .  S
C2850      C2998   1.646       .  S
C2850      C3141   1.614       .  S
C2850      C3211   1.611       .  S
C2850      C3241   1.623       .  S
O2851     Zr2863   2.453       .  S
O2851      C2853   1.288       .  A
O2852     Zr2889   2.521       .  S
O2852      C2853   1.304       .  A
C2853      C3001   1.548       .  S
O2854     Zr2866   2.434       .  S
O2854      C2856   1.283       .  A
O2855     Zr2890   2.476       .  S
O2855      C2856   1.293       .  A
C2856      C2981   1.527       .  S
O2857     Zr2866   2.344       .  S
O2857      C2859   1.269       .  A
O2858     Zr2889   2.488       .  S
O2858      C2859   1.305       .  A
O2860     Zr2863   2.356       .  S
O2860      C2862   1.273       .  A
O2861     Zr2890   2.417       .  S
O2861      C2862   1.290       .  A
Zr2863     O2869   2.332       .  S
Zr2863     O2870   2.385       .  S
Zr2863     O2893   2.396       .  S
Zr2863     O2895   2.346       .  S
Zr2863     O2864   2.433       .  S
Zr2863     O2865   2.432       .  S
O2864      H2907   0.990       .  S
O2865      H2906   0.990       .  S
O2865      H2910   0.990       .  S
Zr2866     O2870   2.328       .  S
Zr2866     O2869   2.383       .  S
Zr2866     O2894   2.384       .  S
Zr2866     O2896   2.332       .  S
Zr2866     O2867   2.432       .  S
Zr2866     O2868   2.418       .  S
O2867      H2908   0.990       .  S
O2867      H2911   0.990       .  S
O2868      H2901   0.990       .  S
O2869     Zr2889   2.381       .  S
O2870     Zr2890   2.391       .  S
O2870      H2897   0.966       .  S
O2871     Zr2883   2.456       .  S
O2871      C2873   1.289       .  A
O2872     Zr2890   2.487       .  S
O2872      C2873   1.298       .  A
C2873      C3011   1.516       .  S
O2874     Zr2886   2.498       .  S
O2874      C2876   1.299       .  A
O2875     Zr2889   2.480       .  S
O2875      C2876   1.296       .  A
C2876      C2988   1.553       .  S
O2877     Zr2886   2.463       .  S
O2877      C2879   1.295       .  A
O2878     Zr2890   2.434       .  S
O2878      C2879   1.287       .  A
O2880     Zr2883   2.384       .  S
O2880      C2882   1.276       .  A
O2881     Zr2889   2.488       .  S
O2881      C2882   1.303       .  A
C2882      C2935   1.471       .  S
Zr2883     O2891   2.362       .  S
Zr2883     O2892   2.383       .  S
Zr2883     O2895   2.391       .  S
Zr2883     O2893   2.348       .  S
Zr2883     O2884   2.427       .  S
Zr2883     O2885   2.430       .  S
O2884      H2904   0.989       .  S
O2884      H2909   0.990       .  S
O2885      H2905   0.990       .  S
Zr2886     O2892   2.359       .  S
Zr2886     O2891   2.390       .  S
Zr2886     O2896   2.369       .  S
Zr2886     O2894   2.358       .  S
Zr2886     O2887   2.433       .  S
Zr2886     O2888   2.430       .  S
O2887      H2903   0.990       .  S
O2888      H2902   0.989       .  S
O2888      H2912   0.989       .  S
Zr2889     O2892   2.397       .  S
Zr2889     O2894   2.404       .  S
Zr2889     O2895   2.393       .  S
Zr2890     O2891   2.397       .  S
Zr2890     O2893   2.399       .  S
Zr2890     O2896   2.381       .  S
O2891      H2899   0.966       .  S
O2894      H2898   0.966       .  S
O2895      H2900   0.966       .  S
O2913     Zr2925   2.375       .  S
O2913      C2915   1.276       .  A
O2914     Zr2951   2.411       .  S
O2914      C2915   1.288       .  A
O2916     Zr2928   2.329       .  S
O2916      C2918   1.266       .  A
O2917     Zr2952   2.472       .  S
O2917      C2918   1.301       .  A
O2919     Zr2928   2.413       .  S
O2919      C2921   1.280       .  A
O2920     Zr2951   2.491       .  S
O2920      C2921   1.300       .  A
C2921      C3281   1.502       .  S
O2922     Zr2925   2.452       .  S
O2922      C2924   1.289       .  A
O2923     Zr2952   2.518       .  S
O2923      C2924   1.305       .  A
C2924      C3048   1.535       .  S
Zr2925     O2931   2.386       .  S
Zr2925     O2932   2.337       .  S
Zr2925     O2955   2.349       .  S
Zr2925     O2957   2.390       .  S
Zr2925     O2926   2.432       .  S
Zr2925     O2927   2.414       .  S
O2926      H2969   0.990       .  S
O2927      H2968   0.987       .  S
O2927      H2972   0.990       .  S
Zr2928     O2932   2.376       .  S
Zr2928     O2931   2.331       .  S
Zr2928     O2956   2.338       .  S
Zr2928     O2958   2.387       .  S
Zr2928     O2929   2.437       .  S
Zr2928     O2930   2.422       .  S
O2929      H2970   0.990       .  S
O2929      H2973   0.990       .  S
O2930      H2963   0.988       .  S
O2931     Zr2951   2.387       .  S
O2932     Zr2952   2.391       .  S
O2932      H2959   0.965       .  S
O2933     Zr2945   2.389       .  S
O2933      C2935   1.277       .  A
O2934     Zr2952   2.487       .  S
O2934      C2935   1.304       .  A
O2936     Zr2948   2.466       .  S
O2936      C2938   1.297       .  A
O2937     Zr2951   2.447       .  S
O2937      C2938   1.289       .  A
O2939     Zr2948   2.503       .  S
O2939      C2941   1.301       .  A
O2940     Zr2952   2.485       .  S
O2940      C2941   1.297       .  A
C2941      C3088   1.556       .  S
O2942     Zr2945   2.438       .  S
O2942      C2944   1.287       .  A
O2943     Zr2951   2.493       .  S
O2943      C2944   1.300       .  A
C2944      C3128   1.516       .  S
Zr2945     O2953   2.375       .  S
Zr2945     O2954   2.359       .  S
Zr2945     O2957   2.353       .  S
Zr2945     O2955   2.390       .  S
Zr2945     O2946   2.432       .  S
Zr2945     O2947   2.434       .  S
O2946      H2966   0.990       .  S
O2946      H2971   0.990       .  S
O2947      H2967   0.990       .  S
Zr2948     O2954   2.383       .  S
Zr2948     O2953   2.358       .  S
Zr2948     O2958   2.359       .  S
Zr2948     O2956   2.372       .  S
Zr2948     O2949   2.434       .  S
Zr2948     O2950   2.415       .  S
O2949      H2965   0.990       .  S
O2950      H2964   0.990       .  S
O2950      H2974   0.985       .  S
Zr2951     O2954   2.394       .  S
Zr2951     O2956   2.380       .  S
Zr2951     O2957   2.404       .  S
Zr2952     O2953   2.402       .  S
Zr2952     O2955   2.388       .  S
Zr2952     O2958   2.396       .  S
O2953      H2961   0.966       .  S
O2956      H2960   0.965       .  S
O2957      H2962   0.966       .  S
C2975      C2991   1.651       .  S
C2975      C3171   1.636       .  S
C2975      C3181   1.615       .  S
C2975      C3248   1.625       .  S
C2976      C2978   1.619       .  S
C2976      C3151   1.639       .  S
C2976      C3191   1.603       .  S
C2976      C3228   1.594       .  S
C2977      C2978   1.434       .  A
C2977      C2982   1.393       .  A
C2977     Br2984   1.941       .  S
C2978      C2979   1.454       .  A
C2979      C2980   1.440       .  A
C2979     Br2986   1.944       .  S
C2980      C2981   1.422       .  A
C2980     Br2985   1.930       .  S
C2981      C2982   1.413       .  A
C2982     Br2983   1.935       .  S
C2987      C2988   1.415       .  A
C2987      C2992   1.412       .  A
C2987     Br2994   1.937       .  S
C2988      C2989   1.430       .  A
C2989      C2990   1.448       .  A
C2989     Br2996   1.934       .  S
C2990      C2991   1.449       .  A
C2990     Br2995   1.928       .  S
C2991      C2992   1.451       .  A
C2992     Br2993   1.946       .  S
C2997      C2998   1.441       .  A
C2997      C3002   1.408       .  A
C2997     Br3004   1.941       .  S
C2998      C2999   1.460       .  A
C2999      C3000   1.449       .  A
C2999     Br3006   1.933       .  S
C3000      C3001   1.422       .  A
C3000     Br3005   1.928       .  S
C3001      C3002   1.415       .  A
C3002     Br3003   1.930       .  S
C3007      C3008   1.458       .  A
C3007      C3012   1.424       .  A
C3007     Br3014   1.930       .  S
C3008      C3009   1.462       .  A
C3009      C3010   1.433       .  A
C3009     Br3016   1.939       .  S
C3010      C3011   1.403       .  A
C3010     Br3015   1.933       .  S
C3011      C3012   1.400       .  A
C3012     Br3013   1.939       .  S
C3017      C3018   1.436       .  A
C3017      C3022   1.414       .  A
C3017     Br3024   1.918       .  S
C3018      C3019   1.446       .  A
C3019      C3020   1.419       .  A
C3019     Br3026   1.917       .  S
C3020      C3021   1.402       .  A
C3020     Br3025   1.939       .  S
C3021      C3022   1.394       .  A
C3022     Br3023   1.926       .  S
C3027      C3028   1.436       .  A
C3027      C3032   1.398       .  A
C3027     Br3034   1.939       .  S
C3028      C3029   1.456       .  A
C3029      C3030   1.427       .  A
C3029     Br3036   1.940       .  S
C3030      C3031   1.400       .  A
C3030     Br3035   1.923       .  S
C3031      C3032   1.390       .  A
C3037      C3038   1.425       .  A
C3037      C3042   1.412       .  A
C3037     Br3044   1.941       .  S
C3038      C3039   1.411       .  A
C3039      C3040   1.428       .  A
C3040      C3041   1.452       .  A
C3040     Br3045   1.932       .  S
C3041      C3042   1.441       .  A
C3042     Br3043   1.951       .  S
C3047      C3048   1.407       .  A
C3047      C3052   1.435       .  A
C3047     Br3054   1.932       .  S
C3048      C3049   1.415       .  A
C3049      C3050   1.429       .  A
C3049     Br3056   1.927       .  S
C3050      C3051   1.451       .  A
C3050     Br3055   1.952       .  S
C3051      C3052   1.459       .  A
C3052     Br3053   1.941       .  S
C3057      C3058   1.460       .  A
C3057      C3062   1.412       .  A
C3057     Br3064   1.936       .  S
C3058      C3059   1.452       .  A
C3059      C3060   1.426       .  A
C3059     Br3066   1.931       .  S
C3060      C3061   1.401       .  A
C3060     Br3065   1.927       .  S
C3061      C3062   1.389       .  A
C3062     Br3063   1.932       .  S
C3067      C3068   1.421       .  A
C3067      C3072   1.432       .  A
C3067     Br3074   1.933   1_565  S
C3068      C3069   1.391       .  A
C3069      C3070   1.416       .  A
C3069     Br3076   1.939       .  S
C3070      C3071   1.467       .  A
C3070     Br3075   1.945       .  S
C3071      C3072   1.440       .  A
C3072     Br3073   1.933       .  S
C3077      C3078   1.395       .  A
C3077      C3082   1.420       .  A
C3077     Br3084   1.938       .  S
C3079     Br3086   1.935       .  S
C3080      C3081   1.458       .  A
C3081      C3082   1.459       .  A
C3082     Br3083   1.923       .  S
C3087      C3088   1.409       .  A
C3087      C3092   1.433       .  A
C3087     Br3094   1.948       .  S
C3088      C3089   1.420       .  A
C3089      C3090   1.444       .  A
C3089     Br3096   1.937       .  S
C3090      C3091   1.452       .  A
C3090     Br3095   1.920       .  S
C3091      C3092   1.472       .  A
C3092     Br3093   1.944       .  S
C3097      C3098   1.451       .  A
C3097      C3102   1.424       .  A
C3097     Br3104   1.917       .  S
C3098      C3099   1.452       .  A
C3099      C3100   1.420       .  A
C3099     Br3106   1.928       .  S
C3100      C3101   1.405       .  A
C3100     Br3105   1.945       .  S
C3101      C3102   1.401       .  A
C3102     Br3103   1.938       .  S
C3107      C3108   1.403       .  A
C3107      C3112   1.410       .  A
C3107     Br3114   1.940       .  S
C3108      C3109   1.389       .  A
C3109      C3110   1.403       .  A
C3109     Br3116   1.935       .  S
C3110      C3111   1.459       .  A
C3110     Br3115   1.950       .  S
C3111      C3112   1.445       .  A
C3112     Br3113   1.938       .  S
C3117      C3118   1.466       .  A
C3117      C3122   1.436       .  A
C3117     Br3124   1.923       .  S
C3118      C3119   1.443       .  A
C3119      C3120   1.407       .  A
C3119     Br3126   1.937       .  S
C3120      C3121   1.409       .  A
C3120     Br3125   1.927       .  S
C3121      C3122   1.404       .  A
C3122     Br3123   1.928   1_556  S
C3127      C3128   1.410       .  A
C3127      C3132   1.426       .  A
C3127     Br3134   1.936       .  S
C3128      C3129   1.401       .  A
C3129      C3130   1.426       .  A
C3129     Br3136   1.943       .  S
C3130      C3131   1.466       .  A
C3130     Br3135   1.946       .  S
C3131      C3132   1.449       .  A
C3132     Br3133   1.935       .  S
C3137      C3138   1.411       .  A
C3137      C3142   1.422       .  A
C3137     Br3144   1.937       .  S
C3138      C3139   1.393       .  A
C3139      C3140   1.418       .  A
C3139     Br3146   1.942       .  S
C3140      C3141   1.463       .  A
C3140     Br3145   1.943       .  S
C3141      C3142   1.442       .  A
C3142     Br3143   1.934       .  S
C3147      C3148   1.413   1_564  A
C3147     Br3154   1.937   1_554  S
C3149      C3150   1.416       .  A
C3149     Br3156   1.930   1_554  S
C3150      C3151   1.418       .  A
C3150     Br3155   1.938       .  S
C3151      C3152   1.439       .  A
C3152     Br3153   1.923       .  S
C3157      C3158   1.404   1_554  A
C3157      C3162   1.425       .  A
C3157     Br3164   1.940       .  S
C3158      C3159   1.396       .  A
C3159      C3160   1.421   1_556  A
C3159     Br3166   1.940       .  S
C3160      C3161   1.465       .  A
C3160     Br3165   1.944   1_554  S
C3161      C3162   1.450       .  A
C3162     Br3163   1.927       .  S
C3167      C3172   1.416       .  A
C3168      C3169   1.420       .  A
C3169     Br3176   1.935       .  S
C3170      C3171   1.437       .  A
C3170     Br3175   1.928       .  S
C3171      C3172   1.464       .  A
C3172     Br3173   1.943       .  S
C3177      C3178   1.402       .  A
C3177      C3182   1.430       .  A
C3177     Br3184   1.929       .  S
C3178      C3179   1.388       .  A
C3179      C3180   1.409       .  A
C3179     Br3186   1.922       .  S
C3180      C3181   1.456       .  A
C3180     Br3185   1.932       .  S
C3181      C3182   1.451       .  A
C3182     Br3183   1.920       .  S
C3187      C3188   1.390   1_655  A
C3187     Br3194   1.946   1_554  S
C3188      C3189   1.386       .  A
C3189     Br3196   1.927       .  S
C3190      C3191   1.453       .  A
C3190     Br3195   1.939       .  S
C3191      C3192   1.451       .  A
C3192     Br3193   1.915       .  S
C3197      C3198   1.393       .  A
C3197      C3202   1.414       .  A
C3197     Br3204   1.944       .  S
C3198      C3199   1.400       .  A
C3199      C3200   1.414       .  A
C3199     Br3206   1.941   1_554  S
C3200      C3201   1.449       .  A
C3200     Br3205   1.931       .  S
C3201      C3202   1.463       .  A
C3202     Br3203   1.939       .  S
C3207      C3212   1.422       .  A
C3207     Br3214   1.933       .  S
C3208      C3209   1.388       .  A
C3209      C3210   1.409   1_655  A
C3209     Br3216   1.940       .  S
C3210     Br3215   1.925   1_455  S
C3211      C3212   1.452       .  A
C3212     Br3213   1.919       .  S
C3217      C3218   1.437       .  A
C3217      C3222   1.400       .  A
C3217     Br3224   1.947       .  S
C3218      C3219   1.455       .  A
C3219      C3220   1.433       .  A
C3219     Br3226   1.927       .  S
C3220      C3221   1.414       .  A
C3220     Br3225   1.937       .  S
C3221      C3222   1.418       .  A
C3222     Br3223   1.935       .  S
C3227      C3228   1.440       .  A
C3227     Br3234   1.935       .  S
C3229      C3230   1.406   1_455  A
C3229     Br3236   1.942   1_455  S
C3230     Br3235   1.929       .  S
C3232     Br3233   1.924       .  S
C3237      C3238   1.393   1_455  A
C3237     Br3244   1.931       .  S
C3238      C3239   1.399       .  A
C3239      C3240   1.418   1_655  A
C3239     Br3246   1.925       .  S
C3240     Br3245   1.946       .  S
C3241      C3242   1.462       .  A
C3242     Br3243   1.938       .  S
C3247      C3248   1.456       .  A
C3248      C3249   1.459       .  A
C3249      C3250   1.421       .  A
C3249     Br3256   1.934       .  S
C3250     Br3255   1.940       .  S
C3251      C3252   1.400       .  A
C3252     Br3253   1.937       .  S
C3257      C3258   1.444       .  A
C3257      C3262   1.419       .  A
C3257     Br3264   1.940       .  S
C3258      C3259   1.459       .  A
C3259      C3260   1.416       .  A
C3259     Br3266   1.930       .  S
C3260      C3261   1.390       .  A
C3261      C3262   1.425       .  A
C3262     Br3263   1.943       .  S
C3267      C3268   1.450       .  A
C3267     Br3274   1.939   1_655  S
C3268      C3269   1.452       .  A
C3270      C3271   1.393       .  A
C3270     Br3275   1.919       .  S
C3272     Br3273   1.934       .  S
C3277      C3278   1.463       .  A
C3277      C3282   1.417       .  A
C3277     Br3284   1.931       .  S
C3278      C3279   1.444       .  A
C3279      C3280   1.413       .  A
C3279     Br3286   1.927       .  S
C3280      C3281   1.406       .  A
C3280     Br3285   1.926       .  S
C3281      C3282   1.394       .  A
C3282     Br3283   1.924       .  S
C3287      C3288   1.441       .  A
C3287      C3292   1.426       .  A
C3287     Br3294   1.943       .  S
C3288      C3289   1.425       .  A
C3289      C3290   1.371       .  A
C3289     Br3296   1.944       .  S
C3290      C3291   1.406       .  A
C3290     Br3295   1.933   1_556  S
C3291      C3292   1.423       .  A
