geometry optimzed in LAMMPS
_audit_creation_date              2020-11-30 
_audit_creation_method            'lammps2cif' 
_symmetry_space_group_name_H-M    'P1' 
_symmetry_Int_Tables_number       1 
_symmetry_cell_setting            triclinic 
loop_ 
_symmetry_equiv_pos_as_xyz 
  x,y,z 
_cell_length_a                    29.48222799 
_cell_length_b                    29.515014108336253 
_cell_length_c                    38.597656895492804 
_cell_angle_alpha                 90.99247221038135 
_cell_angle_beta                  89.05009937247266 
_cell_angle_gamma                 116.38784220072863 
loop_ 
_atom_site_label 
_atom_site_type_symbol 
_atom_site_fract_x 
_atom_site_fract_y 
_atom_site_fract_z 
_atom_site_charge 
O1          O  0.70931189  0.25761415  0.04352634    -0.80900
O2          O  0.71052987  0.42384177  0.96026589    -0.65500
O3          O  0.67571385  0.32905325  0.03183481    -1.12200
C4          C  0.54528730  0.22691974  0.95995921     1.06000
O5          O  0.63124454  0.41367282  0.95912302    -0.78800
O6          O  0.56717782  0.34307343  0.00612227    -0.66300
Ni7        Ni  0.72705120  0.32536731  0.05814059     1.34900
C8          C  0.55481620  0.30805780  0.02835552     0.84800
O9          O  0.74846751  0.43017537  0.02318165    -0.79300
O10         O  0.74762602  0.39342384  0.07370562    -0.89600
C11         C  0.67850004  0.43954858  0.95235253     0.84300
O12         O  0.77988988  0.34751044  0.02382495    -0.67800
O13         O  0.54350757  0.26911401  0.95618620    -0.87100
C14         C  0.77663171  0.34742231  0.99110285     0.85200
C15         C  0.76046187  0.43240881  0.05498848     1.06700
H16         H  0.65667622  0.31842704  0.95006277     0.38500
O17         O  0.64318278  0.32598873  0.97118832    -1.09700
O18         O  0.57415104  0.27707830  0.02777241    -0.66400
Ni19       Ni  0.63051434  0.27399235  0.00353984     1.26300
O20         O  0.74268122  0.35551121  0.97634905    -0.66600
O21         O  0.58242588  0.22281101  0.97384099    -0.78900
C22         C  0.66637268  0.21926020  0.04214520     0.84600
O23         O  0.62595366  0.22276128  0.03532549    -0.66100
Ni24       Ni  0.58922921  0.34049767  0.95930633     1.27400
Ni25       Ni  0.69571854  0.37773413  0.99667222     1.26100
H26         H  0.65592494  0.33800893  0.04829037     0.39100
O27         O  0.58102397  0.37448942  0.46353448    -0.80900
O28         O  0.77200054  0.39128899  0.54889249    -0.65500
O29         O  0.67284169  0.37035986  0.47928106    -1.12200
C30         C  0.57075509  0.23382465  0.55374125     1.06000
O31         O  0.74889057  0.31007487  0.54218959    -0.78800
O32         O  0.66722363  0.23237245  0.51749315    -0.66300
Ni33       Ni  0.65262006  0.42130243  0.46914229     1.34900
C34         C  0.66189354  0.23915682  0.48579316     0.84800
O35         O  0.77347972  0.43997410  0.48883167    -0.79300
O36         O  0.72203761  0.47296440  0.47127600    -0.89600
C37         C  0.77745452  0.35207507  0.55602573     0.84300
O38         O  0.64123622  0.43385376  0.51648518    -0.67800
O39         O  0.61063536  0.24263677  0.57075737    -0.87100
C40         C  0.67423675  0.44726067  0.54022803     0.85200
C41         C  0.76615837  0.47598710  0.47622852     1.06700
H42         H  0.65628252  0.34341899  0.55629754     0.38500
O43         O  0.66879404  0.32969642  0.53754204    -1.09700
O44         O  0.64907832  0.27254223  0.47610343    -0.66400
Ni45       Ni  0.62225067  0.31208424  0.50118795     1.26300
O46         O  0.70875313  0.43248663  0.54066712    -0.66600
O47         O  0.57164198  0.25383832  0.52445919    -0.78900
C48         C  0.55898101  0.32740142  0.45556723     0.84600
O49         O  0.57726468  0.29793947  0.46418446    -0.66100
Ni50       Ni  0.68005018  0.27692160  0.55655831     1.27400
Ni51       Ni  0.72297837  0.38424886  0.51397109     1.26100
H52         H  0.68422166  0.36118615  0.45810721     0.39100
O53         O  0.89197766  0.05528070  0.71975910    -0.74400
O54         O  0.83492172  0.95078984  0.79107998    -0.74400
O55         O  0.88842316  0.06322116  0.78873704    -0.74500
O56         O  0.83855506  0.94881967  0.72242084    -0.74500
O57         O  0.91047619  0.94631359  0.73042960    -0.74500
O58         O  0.95651940  0.05256081  0.79644808    -0.74400
O59         O  0.91127759  0.95883898  0.80020592    -0.74400
O60         O  0.96229585  0.04790667  0.72575694    -0.74500
Ni61       Ni  0.85996462  0.00488738  0.75598004     1.25400
Ni62       Ni  0.93729071  0.00133843  0.76290307     1.25400
C63         C  0.93909920  0.06999591  0.71184376     0.87800
C64         C  0.86474839  0.93266230  0.80218257     0.87700
C65         C  0.93481205  0.08054165  0.79898359     0.87700
C66         C  0.86700076  0.92666444  0.71681534     0.87900
O67         O  0.16031472  0.10197786  0.71365519    -0.74400
O68         O  0.10222720  0.16255963  0.78245030    -0.74400
O69         O  0.15804942  0.10516343  0.78399843    -0.74500
O70         O  0.10127243  0.15620560  0.71247442    -0.74500
O71         O  0.04598498  0.07673654  0.70488256    -0.74500
O72         O  0.07921279  0.05005497  0.79430924    -0.74400
O73         O  0.03029657  0.09942015  0.76880258    -0.74400
O74         O  0.09905110  0.03074252  0.73032551    -0.74500
Ni75       Ni  0.13467379  0.13567746  0.74808082     1.25400
Ni76       Ni  0.06095759  0.06147285  0.74961330     1.25400
C77         C  0.13833972  0.05312654  0.71237488     0.87800
C78         C  0.05340403  0.14027388  0.78498708     0.87700
C79         C  0.12593863  0.06424300  0.79875223     0.87700
C80         C  0.05935073  0.12309731  0.69935003     0.87900
O81         O  0.05856111  0.89658683  0.78142763    -0.74400
O82         O  0.94853864  0.83400377  0.71408360    -0.74400
O83         O  0.06063892  0.88888199  0.71225960    -0.74500
O84         O  0.95160002  0.84207299  0.78286002    -0.74500
O85         O  0.94708998  0.91260277  0.77344162    -0.74500
O86         O  0.04894048  0.95639340  0.70452977    -0.74400
O87         O  0.95537431  0.90941189  0.70338078    -0.74400
O88         O  0.04903159  0.96561033  0.77523858    -0.74500
Ni89       Ni  0.00522555  0.86190685  0.74727113     1.25400
Ni90       Ni  0.00000325  0.93812972  0.73944890     1.25400
C91         C  0.07306865  0.94386825  0.78857547     0.87800
C92         C  0.92950083  0.86279762  0.70260061     0.87700
C93         C  0.07666812  0.93454985  0.70095091     0.87700
C94         C  0.92909942  0.87026481  0.78842099     0.87900
C95         C  0.96408985  0.18472570  0.65693365     0.02300
C96         C  0.01695716  0.20785950  0.65189878     0.02300
C97         C  0.04537275  0.18405320  0.66377427    -0.18200
C98         C  0.02302297  0.13860039  0.68233407     0.02300
C99         C  0.96824354  0.11471257  0.68818541     0.02300
C100        C  0.94039118  0.13852715  0.67432138    -0.18200
H101        H  0.89976630  0.12228562  0.67834895     0.04300
H102        H  0.08612705  0.20280855  0.66004566     0.04300
C103        C  0.19803330  0.96696602  0.64987201     0.02300
C104        C  0.22545436  0.01979876  0.65512478     0.02300
C105        C  0.20464431  0.04561074  0.67561256    -0.18200
C106        C  0.15658937  0.02072227  0.69090444     0.02300
C107        C  0.12856838  0.96586149  0.68595882     0.02300
C108        C  0.15057379  0.94066516  0.66591447    -0.18200
H109        H  0.12982030  0.90014324  0.66180859     0.04300
H110        H  0.22669554  0.08595459  0.67981895     0.04300
C111        C  0.81370499  0.78190913  0.84145593     0.02300
C112        C  0.78245351  0.80684264  0.84255185     0.02300
C113        C  0.80028085  0.85533097  0.82904173    -0.18200
C114        C  0.84859994  0.87991038  0.81406188     0.02300
C115        C  0.88014844  0.85312725  0.81027547     0.02300
C116        C  0.86151287  0.80490164  0.82521983    -0.18200
H117        H  0.88376504  0.78396031  0.82344870     0.04300
H118        H  0.77641730  0.87460468  0.83095631     0.04300
C119        C  0.80222212  0.77882538  0.66427063     0.02300
C120        C  0.77628110  0.80891000  0.66710184     0.02300
C121        C  0.79928409  0.85659482  0.68326457    -0.18200
C122        C  0.84878699  0.87650065  0.69635798     0.02300
C123        C  0.87610179  0.84560675  0.69173339     0.02300
C124        C  0.85154274  0.79730366  0.67666989    -0.18200
H125        H  0.87135803  0.77404205  0.67383752     0.04300
H126        H  0.77795063  0.87842394  0.68548476     0.04300
C127        C  0.21250569  0.02579068  0.84767903     0.02300
C128        C  0.19148112  0.97314064  0.84133858     0.02300
C129        C  0.14485625  0.94816908  0.82440055    -0.18200
C130        C  0.11932046  0.97458541  0.81094615     0.02300
C131        C  0.14250820  0.02935651  0.81629676     0.02300
C132        C  0.18755352  0.05290556  0.83529233    -0.18200
H133        H  0.20430994  0.09345770  0.83972878     0.04300
H134        H  0.12975341  0.90769453  0.82020644     0.04300
C135        C  0.97061801  0.20927111  0.84145186     0.02300
C136        C  0.02361548  0.23474001  0.83559838     0.02300
C137        C  0.04820803  0.21019224  0.81800170    -0.18200
C138        C  0.02202407  0.16072206  0.80536730     0.02300
C139        C  0.96715625  0.13411523  0.81111308     0.02300
C140        C  0.94311963  0.15958671  0.82878509    -0.18200
H141        H  0.90271300  0.13990071  0.83378574     0.04300
H142        H  0.08875565  0.23068612  0.81373864     0.04300
O143        O  0.25334726  0.69515726  0.45412517    -0.80900
O144        O  0.42225322  0.71091252  0.53920236    -0.65500
O145        O  0.32906604  0.66994762  0.46594667    -1.12200
C146        C  0.23046490  0.54157310  0.54284318     1.06000
O147        O  0.41667148  0.63382601  0.54095843    -0.78800
O148        O  0.34728086  0.56300396  0.49683514    -0.66300
Ni149      Ni  0.32217330  0.71997678  0.43970604     1.34900
C150        C  0.31386961  0.54961249  0.47334776     0.84800
O151        O  0.42883078  0.74604973  0.47521233    -0.79300
O152        O  0.39189116  0.74773238  0.42526586    -0.89600
C153        C  0.43978152  0.68099479  0.54849799     0.84300
O154        O  0.33807486  0.77199745  0.47391596    -0.67800
O155        O  0.27392281  0.54265843  0.54688132    -0.87100
C156        C  0.33987274  0.76953359  0.50654248     0.85200
C157        C  0.43114398  0.76062678  0.44397341     1.06700
H158        H  0.31639101  0.65340929  0.54774866     0.38500
O159        O  0.32576899  0.63986623  0.52735784    -1.09700
O160        O  0.28184529  0.56745258  0.47174260    -0.66400
Ni161      Ni  0.27382825  0.62246200  0.49386184     1.26300
O162        O  0.35171421  0.73813456  0.52122597    -0.66600
O163        O  0.22322804  0.57337862  0.52411263    -0.78900
C164        C  0.22000163  0.65089541  0.44725146     0.84600
O165        O  0.22296760  0.61243932  0.45949314    -0.66100
Ni166      Ni  0.34416896  0.58963031  0.54204176     1.27400
Ni167      Ni  0.37690747  0.69291408  0.50187528     1.26100
H168        H  0.33982805  0.65117010  0.44965380     0.39100
O169        O  0.36768121  0.57985708  0.03441333    -0.80900
O170        O  0.38691862  0.77745295  0.96162884    -0.65500
O171        O  0.36136071  0.67184433  0.02643547    -1.12200
C172        C  0.23185928  0.57571269  0.94578935     1.06000
O173        O  0.30473005  0.75339582  0.96385045    -0.78800
O174        O  0.22652540  0.66875579  0.98448322    -0.66300
Ni175      Ni  0.41143805  0.65196695  0.03962071     1.34900
C176        C  0.23004193  0.65965720  0.01602732     0.84800
O177        O  0.42979494  0.77332041  0.02299804    -0.79300
O178        O  0.45756319  0.72158150  0.04815563    -0.89600
C179        C  0.34864891  0.78440798  0.95400987     0.84300
O180        O  0.44120709  0.65434706  0.99459897    -0.67800
O181        O  0.24177337  0.61682209  0.93000519    -0.87100
C182        C  0.45099813  0.68640981  0.97049917     0.85200
C183        C  0.46042429  0.76524892  0.04217102     1.06700
H184        H  0.34176850  0.66299549  0.94860390     0.38500
O185        O  0.32585860  0.67311036  0.96725817    -1.09700
O186        O  0.26244316  0.64562613  0.02629751    -0.66400
Ni187      Ni  0.30590877  0.62292295  0.00144967     1.26300
O188        O  0.42927523  0.71515106  0.96880561    -0.66600
O189        O  0.25056918  0.57431778  0.97511124    -0.78900
C190        C  0.32125442  0.55689066  0.04384392     0.84600
O191        O  0.29047968  0.57435979  0.03650704    -0.66100
Ni192      Ni  0.27422026  0.68525959  0.94700800     1.27400
Ni193      Ni  0.37756011  0.72511850  0.99428368     1.26100
H194        H  0.34924507  0.68103585  0.04746972     0.39100
O195        O  0.95507211  0.03600791  0.22368730    -0.74400
O196        O  0.04491295  0.09608179  0.29659614    -0.74400
O197        O  0.95155004  0.04968881  0.29381529    -0.74500
O198        O  0.05649229  0.08996347  0.22708862    -0.74500
O199        O  0.05225974  0.15955309  0.21415444    -0.74500
O200        O  0.94021865  0.11636996  0.28231335    -0.74400
O201        O  0.05289740  0.17086555  0.28264845    -0.74400
O202        O  0.94602162  0.10447632  0.21336466    -0.74500
Ni203      Ni  0.00208779  0.06579541  0.26010704     1.25400
Ni204      Ni  0.99735877  0.14135569  0.24842967     1.25400
C205        C  0.93252141  0.05697296  0.20763215     0.87800
C206        C  0.07123330  0.14250912  0.29600270     0.87700
C207        C  0.92361644  0.07152460  0.29520054     0.87700
C208        C  0.07482129  0.13115558  0.21067115     0.87900
O209        O  0.90287791  0.97292374  0.27099007    -0.74400
O210        O  0.97089517  0.90000277  0.23789869    -0.74400
O211        O  0.92491668  0.94972845  0.20876003    -0.74500
O212        O  0.95360012  0.92776485  0.30027947    -0.74500
O213        O  0.89826258  0.84805281  0.29378690    -0.74500
O214        O  0.84519371  0.89660558  0.21862405    -0.74400
O215        O  0.89873577  0.83775823  0.22366881    -0.74400
O216        O  0.84051084  0.90313101  0.28869030    -0.74500
Ni217      Ni  0.94084945  0.94034620  0.25444091     1.25400
Ni218      Ni  0.86635254  0.86711895  0.25634667     1.25400
C219        C  0.86288936  0.95197382  0.28856774     0.87800
C220        C  0.94758727  0.85921023  0.22164697     0.87700
C221        C  0.87858615  0.93615112  0.20318466     0.87700
C222        C  0.93977535  0.88179569  0.30705002     0.87900
C223        C  0.77272311  0.98893972  0.33969528     0.02300
C224        C  0.79866484  0.04230897  0.34115650     0.02300
C225        C  0.84712969  0.06758905  0.32620029    -0.18200
C226        C  0.87101856  0.04109485  0.30976193     0.02300
C227        C  0.84389853  0.98580214  0.30765924     0.02300
C228        C  0.79577398  0.96171155  0.32320850    -0.18200
H229        H  0.77539463  0.92078955  0.32233191     0.04300
H230        H  0.86665209  0.10854258  0.32772606     0.04300
O231        O  0.03724097  0.95539589  0.27910375    -0.74400
O232        O  0.09010049  0.04070301  0.20237433    -0.74400
O233        O  0.04338272  0.94707035  0.20855702    -0.74500
O234        O  0.08942982  0.05653052  0.27206012    -0.74500
O235        O  0.16083886  0.05374613  0.28169741    -0.74500
O236        O  0.11177552  0.93709868  0.21725843    -0.74400
O237        O  0.16612333  0.04882209  0.21297879    -0.74400
O238        O  0.10686322  0.94700660  0.28589662    -0.74500
Ni239      Ni  0.06290318  0.00007452  0.24074999     1.25400
Ni240      Ni  0.13984409  0.99631790  0.24912183     1.25400
C241        C  0.05976330  0.93293753  0.29354406     0.87800
C242        C  0.13681863  0.06643282  0.20030019     0.87700
C243        C  0.06542359  0.91926724  0.20689160     0.87700
C244        C  0.13259690  0.07644995  0.28605459     0.87900
C245        C  0.79857309  0.97151698  0.14553362     0.02300
C246        C  0.82411280  0.02481410  0.14456155     0.02300
C247        C  0.86908781  0.05075626  0.16326056    -0.18200
C248        C  0.88929773  0.02490500  0.18353896     0.02300
C249        C  0.86404235  0.96969682  0.18234862     0.02300
C250        C  0.81924160  0.94487686  0.16361156    -0.18200
H251        H  0.79886904  0.90391454  0.16403055     0.04300
H252        H  0.88742567  0.09173024  0.16290378     0.04300
C253        C  0.22091324  0.19379973  0.33747596     0.02300
C254        C  0.19656045  0.22565468  0.33723523     0.02300
C255        C  0.14857178  0.20790421  0.32252178    -0.18200
C256        C  0.12413212  0.15938124  0.30791975     0.02300
C257        C  0.15047745  0.12730383  0.30570841     0.02300
C258        C  0.19843491  0.14617747  0.32108200    -0.18200
H259        H  0.21869751  0.12323102  0.32084655     0.04300
H260        H  0.12937262  0.23187597  0.32332622     0.04300
C261        C  0.22099437  0.18884607  0.15548333     0.02300
C262        C  0.19142890  0.21570513  0.15702138     0.02300
C263        C  0.14416670  0.19477324  0.17408180    -0.18200
C264        C  0.12400601  0.14674296  0.18943566     0.02300
C265        C  0.15400218  0.11843486  0.18638975     0.02300
C266        C  0.20186338  0.14085660  0.17043736    -0.18200
H267        H  0.22466164  0.12041983  0.16946404     0.04300
H268        H  0.12297677  0.21680818  0.17548483     0.04300
C269        C  0.03170504  0.81756673  0.34924371     0.02300
C270        C  0.98024583  0.79982528  0.35867390     0.02300
C271        C  0.95329723  0.82512889  0.34669287    -0.18200
C272        C  0.97580977  0.86736706  0.32514809     0.02300
C273        C  0.03006715  0.88873680  0.31770879     0.02300
C274        C  0.05640910  0.86267093  0.33057424    -0.18200
H275        H  0.09615173  0.87566191  0.32423411     0.04300
H276        H  0.91335209  0.81037253  0.35312688     0.04300
C277        C  0.97754468  0.76616342  0.16881893     0.02300
C278        C  0.03077760  0.79098927  0.16468588     0.02300
C279        C  0.05810602  0.84008840  0.17811653    -0.18200
C280        C  0.03364072  0.86539002  0.19546084     0.02300
C281        C  0.97887069  0.83852909  0.20130427     0.02300
C282        C  0.95281068  0.78955299  0.18776231    -0.18200
H283        H  0.91211652  0.76922967  0.19136565     0.04300
H284        H  0.09873499  0.85939538  0.17391972     0.04300
C285        C  0.20871411  0.26588190  0.14075912    -0.19800
C286        C  0.21294448  0.27103441  0.10455044     0.36400
C287        C  0.23035481  0.31906191  0.08992817    -0.25800
C288        C  0.24391530  0.36233885  0.11093431     0.02800
C289        C  0.23845629  0.35716155  0.14728496     0.27600
C290        C  0.22048541  0.30879269  0.16182770    -0.24900
N291        N  0.19906796  0.22742452  0.08257459    -0.82300
H292        H  0.23351891  0.32264423  0.06198828     0.13400
C293        C  0.26473035  0.41274080  0.09440411     0.02800
N294        N  0.25197813  0.40102734  0.16922867    -0.80900
H295        H  0.21672143  0.30455477  0.18970916     0.18200
C296        C  0.24056254  0.44385100  0.09984867    -0.25700
C297        C  0.25905285  0.49155743  0.08433592     0.36300
C298        C  0.30200694  0.50794656  0.06211010    -0.19800
C299        C  0.32651298  0.47698780  0.05710436    -0.25000
C300        C  0.30848518  0.42969646  0.07317563     0.27700
H301        H  0.20711620  0.43079472  0.11630671     0.13400
N302        N  0.23477132  0.52360937  0.09149915    -0.82300
H303        H  0.35959733  0.48949692  0.04033741     0.18300
N304        N  0.33451308  0.39880858  0.06817641    -0.80900
H305        H  0.20362786  0.50573493  0.10809229     0.33900
H306        H  0.26063750  0.55559475  0.10483117     0.38400
H307        H  0.36590248  0.41658264  0.05177363     0.33900
H308        H  0.34848602  0.39536733  0.09220906     0.30600
H309        H  0.24554379  0.39064129  0.19527601     0.33900
H310        H  0.29093073  0.42358444  0.16635970     0.30600
H311        H  0.23058082  0.23258502  0.06729594     0.38400
H312        H  0.17046074  0.22551804  0.06610454     0.33900
C313        C  0.19577253  0.66753149  0.04150158    -0.19800
C314        C  0.21150490  0.68554803  0.07555132     0.36400
C315        C  0.18065487  0.69974154  0.09685139    -0.25800
C316        C  0.13449418  0.69634721  0.08496434     0.02800
C317        C  0.11721148  0.67518415  0.05188090     0.27600
C318        C  0.14816251  0.66142271  0.03043392    -0.24900
N319        N  0.25980004  0.69195851  0.08782739    -0.82300
H320        H  0.19403500  0.71617727  0.12219013     0.13400
C321        C  0.10721233  0.71953497  0.10594061     0.02800
N322        N  0.06873383  0.66876877  0.03996625    -0.80900
H323        H  0.13547209  0.64678628  0.00460441     0.18200
C324        C  0.09686794  0.75686565  0.09080395    -0.25700
C325        C  0.07240813  0.78092949  0.10963763     0.36300
C326        C  0.05832973  0.76770541  0.14441106    -0.19800
C327        C  0.07077367  0.73226910  0.16013472    -0.25000
C328        C  0.09406649  0.70715360  0.14105809     0.27700
H329        H  0.10839461  0.76760698  0.06420278     0.13400
N330        N  0.06273347  0.81947237  0.09385026    -0.82300
H331        H  0.06151354  0.72363830  0.18725983     0.18300
N332        N  0.10395334  0.66887499  0.15706106    -0.80900
H333        H  0.07658255  0.82563202  0.06837832     0.33900
H334        H  0.02354191  0.80591031  0.09232632     0.38400
H335        H  0.09211049  0.66444849  0.18299593     0.33900
H336        H  0.08187699  0.63453769  0.14449229     0.30600
H337        H  0.06174427  0.65301625  0.01499724     0.33900
H338        H  0.04103580  0.64267587  0.05620084     0.30600
H339        H  0.28783178  0.72070933  0.07334390     0.38400
H340        H  0.26498360  0.70445918  0.11362745     0.33900
C341        C  0.50341990  0.80785125  0.05794229    -0.19800
C342        C  0.51011628  0.80946129  0.09405610     0.36400
C343        C  0.55764908  0.84090235  0.10794997    -0.25800
C344        C  0.59854874  0.87041518  0.08632132     0.02800
C345        C  0.59088093  0.87076143  0.05028759     0.27600
C346        C  0.54313951  0.83951975  0.03644899    -0.24900
N347        N  0.46919147  0.77706505  0.11616997    -0.82300
H348        H  0.56354162  0.84024964  0.13553532     0.13400
C349        C  0.64982431  0.89690813  0.10148356     0.02800
N350        N  0.63200865  0.90159010  0.02783678    -0.80900
H351        H  0.53784542  0.83730837  0.00863247     0.18200
C352        C  0.68881667  0.88648335  0.08812655    -0.25700
C353        C  0.73766293  0.90972638  0.10185285     0.36300
C354        C  0.74734210  0.94314719  0.13058061    -0.19800
C355        C  0.70789415  0.95230050  0.14462271    -0.25000
C356        C  0.65947248  0.93020248  0.13005824     0.27700
H357        H  0.68128421  0.86008086  0.06663205     0.13400
N358        N  0.77617838  0.89909379  0.08553168    -0.82300
H359        H  0.71538948  0.97782029  0.16664232     0.18300
N360        N  0.62016828  0.94162652  0.14399870    -0.80900
H361        H  0.78002305  0.91124609  0.05989137     0.33900
H362        H  0.81150386  0.91965960  0.09679283     0.38400
H363        H  0.63375417  0.96746048  0.16462302     0.33900
H364        H  0.60983918  0.95939013  0.12459558     0.30600
H365        H  0.62053506  0.89619340  0.00198431     0.33900
H366        H  0.64103870  0.93910819  0.03409523     0.30600
H367        H  0.44022555  0.78816184  0.11431205     0.38400
H368        H  0.48041772  0.78231667  0.14207610     0.33900
C369        C  0.30888993  0.50874772  0.44836799    -0.19800
C370        C  0.28452511  0.50307907  0.41614120     0.36400
C371        C  0.27075358  0.45828475  0.39666013    -0.25800
C372        C  0.28135304  0.41945884  0.40843260     0.02800
C373        C  0.30870205  0.42627544  0.43923390     0.27600
C374        C  0.32245590  0.47101886  0.45885251    -0.24900
N375        N  0.27285374  0.54229030  0.40367475    -0.82300
H376        H  0.25024295  0.45287191  0.37269075     0.13400
C377        C  0.25968773  0.37026300  0.38979784     0.02800
N378        N  0.32147050  0.38732695  0.45075311    -0.80900
H379        H  0.34126726  0.47507131  0.48339338     0.18200
C380        C  0.28678254  0.36157051  0.36242816    -0.25700
C381        C  0.26638543  0.31525020  0.34404967     0.36300
C382        C  0.21878315  0.27657858  0.35413605    -0.19800
C383        C  0.19133069  0.28607424  0.38096687    -0.25000
C384        C  0.21120439  0.33258396  0.39881579     0.27700
H385        H  0.32357239  0.39119455  0.35520749     0.13400
N386        N  0.29333890  0.30755434  0.31497276    -0.82300
H387        H  0.15451124  0.25665032  0.38836743     0.18300
N388        N  0.18213185  0.34204050  0.42577823    -0.80900
H389        H  0.32770713  0.33960581  0.31098323     0.33900
H390        H  0.27157068  0.30296191  0.29289685     0.38400
H391        H  0.14673236  0.31089166  0.42863651     0.33900
H392        H  0.20104136  0.34613778  0.44914489     0.30600
H393        H  0.34210961  0.39843701  0.47370553     0.33900
H394        H  0.28780736  0.35544131  0.45665221     0.30600
H395        H  0.30717520  0.57422200  0.39926581     0.38400
H396        H  0.25457637  0.53197011  0.37979722     0.33900
C397        C  0.05911644  0.78733967  0.35738491    -0.19800
C398        C  0.04355810  0.73838328  0.34314216     0.36400
C399        C  0.06364100  0.70691734  0.35577335    -0.29600
C400        C  0.09977202  0.72395434  0.38198900     0.02800
C401        C  0.11815168  0.77415637  0.39462014     0.27600
C402        C  0.09743503  0.80541274  0.38222419    -0.24900
N403        N  0.00726393  0.72053259  0.31585883    -0.82300
H404        H  0.05090085  0.66903827  0.34516754     0.13400
C405        C  0.12098784  0.69042386  0.39453320     0.02800
N406        N  0.15819148  0.79326992  0.41960328    -0.80900
H407        H  0.10982616  0.84325343  0.39280406     0.18200
C408        C  0.16274030  0.69034763  0.37691635    -0.25700
C409        C  0.19174951  0.66939049  0.39209023     0.36300
C410        C  0.17858964  0.64768060  0.42520026    -0.19800
C411        C  0.13334207  0.64239023  0.44100235    -0.25000
C412        C  0.10420481  0.66377880  0.42587619     0.27700
H413        H  0.17521179  0.71016798  0.35259180     0.13400
N414        N  0.23754223  0.67453433  0.37539006    -0.82300
H415        H  0.12364629  0.62643585  0.46669907     0.18300
N416        N  0.05913929  0.66059128  0.44287307    -0.80900
H417        H  0.22820993  0.65701312  0.35102379     0.33900
H418        H  0.26088818  0.71305336  0.37165686     0.38400
H419        H  0.05178287  0.63925637  0.46543473     0.33900
H420        H  0.06578562  0.69706206  0.45067286     0.30600
H421        H  0.16818706  0.83121147  0.42553408     0.33900
H422        H  0.14436718  0.77328009  0.44255370     0.30600
H423        H  0.97715985  0.68675415  0.32389892     0.38400
H424        H  0.02429296  0.71213742  0.29434110     0.33900
C425        C  0.72130335  0.96007607  0.35526277    -0.19800
C426        C  0.68056563  0.92674149  0.33474200     0.36400
C427        C  0.63346007  0.89702736  0.35044775    -0.25800
C428        C  0.62581481  0.90043509  0.38618346     0.02800
C429        C  0.66602797  0.93496880  0.40660383     0.27600
C430        C  0.71353582  0.96411925  0.39097821    -0.24900
N431        N  0.68743027  0.92292549  0.29802448    -0.82300
H432        H  0.60263200  0.87043104  0.33480948     0.13400
C433        C  0.57594978  0.86606813  0.40176404     0.02800
N434        N  0.65846318  0.94007229  0.44307648    -0.80900
H435        H  0.74484519  0.98952387  0.40676880     0.18200
C436        C  0.57372481  0.83176506  0.42723007    -0.25700
C437        C  0.52707168  0.79629242  0.44093159     0.36300
C438        C  0.48144717  0.79548980  0.42918179    -0.19800
C439        C  0.48390206  0.82980978  0.40354672    -0.25000
C440        C  0.53057683  0.86526370  0.38995349     0.27700
H441        H  0.60857978  0.83186395  0.43581451     0.13400
N442        N  0.52596609  0.76044156  0.46608817    -0.82300
H443        H  0.44925732  0.82975893  0.39456694     0.18300
N444        N  0.53218105  0.90086490  0.36442953    -0.80900
H445        H  0.56267697  0.76662150  0.47228540     0.33900
H446        H  0.50829229  0.72444298  0.45469555     0.38400
H447        H  0.49559423  0.89525149  0.35840359     0.33900
H448        H  0.55058465  0.93704822  0.37547398     0.30600
H449        H  0.69175049  0.96703939  0.45434062     0.33900
H450        H  0.63159145  0.95400182  0.44583594     0.30600
H451        H  0.69526116  0.95794737  0.28728408     0.38400
H452        H  0.65395060  0.89643989  0.28669574     0.33900
C453        C  0.19806014  0.52695316  0.92914650    -0.19800
C454        C  0.17006213  0.48332396  0.94899702     0.36400
C455        C  0.14179187  0.43688382  0.93233703    -0.25800
C456        C  0.14124738  0.43276460  0.89610017     0.02800
C457        C  0.16838825  0.47636342  0.87607192     0.27600
C458        C  0.19599247  0.52316748  0.89281646    -0.24900
N459        N  0.16980428  0.48599463  0.98610746    -0.82300
H460        H  0.12028630  0.40369465  0.94783795     0.13400
C461        C  0.11247466  0.38241434  0.87961297     0.02800
N462        N  0.16887007  0.47266476  0.83888487    -0.80900
H463        H  0.21758627  0.55641080  0.87741327     0.18200
C464        C  0.07531637  0.37575843  0.85513566    -0.25700
C465        C  0.04784034  0.32900694  0.83860765     0.36300
C466        C  0.05529434  0.28687405  0.84864460    -0.19800
C467        C  0.09289343  0.29372948  0.87285452    -0.25000
C468        C  0.12213042  0.34121431  0.88803103     0.27700
H469        H  0.06807688  0.40743397  0.84841396     0.13400
N470        N  0.01336708  0.32599278  0.81172515    -0.82300
H471        H  0.09901483  0.26160771  0.88020178     0.18300
N472        N  0.16167385  0.34785120  0.91184078    -0.80900
H473        H  0.03430979  0.35206878  0.79272781     0.33900
H474        H  0.99871331  0.29084907  0.79922518     0.38400
H475        H  0.16370557  0.31374147  0.91529577     0.33900
H476        H  0.19608040  0.37280532  0.90056209     0.30600
H477        H  0.19052900  0.50816780  0.82802452     0.33900
H478        H  0.18683634  0.45013681  0.83211815     0.30600
H479        H  0.18329655  0.46127226  0.99548576     0.38400
H480        H  0.13234418  0.47340391  0.99461545     0.33900
C481        C  0.35196054  0.82631953  0.93261077    -0.19800
C482        C  0.34895048  0.86813671  0.94858786     0.36400
C483        C  0.32849778  0.89532460  0.93016642    -0.25800
C484        C  0.31027538  0.88059564  0.89641824     0.02800
C485        C  0.31694513  0.84124979  0.87953611     0.27600
C486        C  0.33855063  0.81495589  0.89771645    -0.24900
N487        N  0.36243478  0.87979731  0.98437846    -0.82300
H488        H  0.32334991  0.92570406  0.94294478     0.13400
C489        C  0.27847828  0.90194469  0.88088537     0.02800
N490        N  0.29819943  0.82565407  0.84503432    -0.80900
H491        H  0.33963422  0.78185865  0.88588779     0.18200
C492        C  0.29581883  0.93251047  0.85156413    -0.25700
C493        C  0.26640648  0.95363820  0.83676956     0.36300
C494        C  0.21896840  0.94396201  0.85175240    -0.19800
C495        C  0.20060848  0.91134447  0.87998213    -0.25000
C496        C  0.23007246  0.89041791  0.89486296     0.27700
H497        H  0.33266348  0.94050226  0.84063252     0.13400
N498        N  0.28496192  0.98607429  0.80725749    -0.82300
H499        H  0.16426828  0.90422629  0.89141914     0.18300
N500        N  0.21147658  0.85809414  0.92445262    -0.80900
H501        H  0.32069741  0.98994169  0.79965077     0.33900
H502        H  0.26051965  0.96842070  0.78667480     0.38400
H503        H  0.17553506  0.85389254  0.93181065     0.33900
H504        H  0.20715881  0.82219336  0.91696755     0.30600
H505        H  0.30584182  0.79594327  0.83642546     0.33900
H506        H  0.25877173  0.81132294  0.84608584     0.30600
H507        H  0.40120279  0.89044198  0.98624905     0.38400
H508        H  0.35700879  0.91101814  0.99255106     0.33900
C509        C  0.72572957  0.79183109  0.65153460    -0.19800
C510        C  0.68198144  0.77934247  0.67218055     0.36400
C511        C  0.63460332  0.76142485  0.65606991    -0.25800
C512        C  0.63067804  0.75553734  0.61995468     0.02800
C513        C  0.67438442  0.76802300  0.59939634     0.27600
C514        C  0.72163696  0.78670143  0.61540485    -0.24900
N515        N  0.68591792  0.78463848  0.70924951    -0.82300
H516        H  0.60064787  0.75167925  0.67159676     0.13400
C517        C  0.58064708  0.73627887  0.60357748     0.02800
N518        N  0.67043866  0.76158510  0.56237774    -0.80900
H519        H  0.75548665  0.79687284  0.59972329     0.18200
C520        C  0.56581568  0.77071425  0.58927254    -0.25700
C521        C  0.52023637  0.75402290  0.57110206     0.36300
C522        C  0.48872383  0.70127795  0.56723593    -0.19800
C523        C  0.50389764  0.66701644  0.58210272    -0.25000
C524        C  0.54954317  0.68405523  0.60023256     0.27700
H525        H  0.59045287  0.81086168  0.59186678     0.13400
N526        N  0.50637704  0.79061814  0.55656459    -0.82300
H527        H  0.48006671  0.62670439  0.57968823     0.18300
N528        N  0.56456752  0.64866809  0.61528763    -0.80900
H529        H  0.53264352  0.82741090  0.56316655     0.33900
H530        H  0.50826968  0.78779406  0.52962342     0.38400
H531        H  0.53779534  0.61150977  0.61016685     0.33900
H532        H  0.59815815  0.65325302  0.60306316     0.30600
H533        H  0.70625671  0.77296355  0.55105611     0.33900
H534        H  0.65007728  0.72288945  0.55707370     0.30600
H535        H  0.69889536  0.75926141  0.71813082     0.38400
H536        H  0.65022480  0.77407389  0.72057208     0.33900
C537        C  0.73117735  0.78354158  0.85869044    -0.19800
C538        C  0.72485173  0.77698176  0.89479161     0.36400
C539        C  0.67577318  0.75405566  0.90909417    -0.25800
C540        C  0.63281741  0.73764422  0.88804687     0.02800
C541        C  0.63922703  0.74381171  0.85178992     0.27600
C542        C  0.68843780  0.76719554  0.83750927    -0.24900
N543        N  0.76835968  0.79416872  0.91675987    -0.82300
H544        H  0.67095277  0.75017730  0.93694951     0.13400
C545        C  0.58190791  0.71794590  0.90492809     0.02800
N546        N  0.59579730  0.72610245  0.82969533    -0.80900
H547        H  0.69362432  0.77205736  0.80972044     0.18200
C548        C  0.55177003  0.74276466  0.89941425    -0.25700
C549        C  0.50728337  0.73088821  0.91878094     0.36300
C550        C  0.49213179  0.69332706  0.94470288    -0.19800
C551        C  0.52092913  0.66630086  0.94858071    -0.25000
C552        C  0.56543833  0.67810219  0.92891094     0.27700
H553        H  0.56406807  0.77338376  0.88101702     0.13400
N554        N  0.47878006  0.75855421  0.91263494    -0.82300
H555        H  0.50988092  0.63708806  0.96794504     0.18300
N556        N  0.59473640  0.65068022  0.93376814    -0.80900
H557        H  0.46801459  0.75341266  0.88663746     0.33900
H558        H  0.50245360  0.79699713  0.91678583     0.38400
H559        H  0.57775537  0.62268071  0.95242368     0.33900
H560        H  0.59449472  0.63203567  0.91043468     0.30600
H561        H  0.60704246  0.73360088  0.80374411     0.33900
H562        H  0.57672773  0.68676249  0.83190798     0.30600
H563        H  0.78766113  0.83353302  0.91485595     0.38400
H564        H  0.75729124  0.78617824  0.94269225     0.33900
C565        C  0.21828046  0.93818279  0.62780357    -0.19800
C566        C  0.23031902  0.94950639  0.59244813     0.36400
C567        C  0.25272562  0.92370109  0.57334880    -0.25800
C568        C  0.26115587  0.88518887  0.58839072     0.02800
C569        C  0.24705545  0.87234216  0.62329918     0.27600
C570        C  0.22629452  0.89939370  0.64275715    -0.24900
N571        N  0.21935730  0.98680566  0.57605384    -0.82300
H572        H  0.26312630  0.93318079  0.54644007     0.13400
C573        C  0.28277417  0.85720067  0.56684105     0.02800
N574        N  0.25331297  0.83149230  0.63867981    -0.80900
H575        H  0.21644224  0.89036938  0.66978427     0.18200
C576        C  0.32741146  0.85530453  0.57719756    -0.25700
C577        C  0.34767520  0.82741021  0.55796674     0.36300
C578        C  0.32308059  0.80177006  0.52751052    -0.19800
C579        C  0.27942336  0.80513272  0.51669883    -0.25000
C580        C  0.25864123  0.83192655  0.53620045     0.27700
H581        H  0.34627555  0.87546683  0.60046986     0.13400
N582        N  0.39380864  0.82657896  0.56857002    -0.82300
H583        H  0.26032213  0.78518817  0.49341194     0.18300
N584        N  0.21249311  0.83263959  0.52540954    -0.80900
H585        H  0.40862580  0.84998853  0.59026840     0.33900
H586        H  0.38485833  0.78989163  0.57653671     0.38400
H587        H  0.19977035  0.81245117  0.50218056     0.33900
H588        H  0.18473793  0.81373490  0.54415942     0.30600
H589        H  0.24117312  0.82697279  0.66454965     0.33900
H590        H  0.22955483  0.79818076  0.62562906     0.30600
H591        H  0.18004751  0.97351549  0.57630045     0.38400
H592        H  0.23085791  0.99089898  0.55005268     0.33900
C593        C  0.04357786  0.25858767  0.63579751    -0.19800
C594        C  0.04654909  0.30232921  0.65306790     0.36400
C595        C  0.06863811  0.34903841  0.63605635    -0.25800
C596        C  0.09062475  0.35356857  0.60297231     0.02800
C597        C  0.09125591  0.31040336  0.58686324     0.27600
C598        C  0.06635036  0.26307198  0.60305610    -0.24900
N599        N  0.02838886  0.29929950  0.68815496    -0.82300
H600        H  0.07081601  0.38264672  0.64925559     0.13400
C601        C  0.12113512  0.40512475  0.58903185     0.02800
N602        N  0.12045877  0.31530837  0.55569838    -0.80900
H603        H  0.06553198  0.22962272  0.59045831     0.18200
C604        C  0.16557347  0.43643277  0.60642676    -0.25700
C605        C  0.19842084  0.48405857  0.59358211     0.36300
C606        C  0.18833182  0.49984107  0.56136928    -0.19800
C607        C  0.14150138  0.47069627  0.54550011    -0.25000
C608        C  0.10697386  0.42380276  0.55968438     0.27700
H609        H  0.17510039  0.42318364  0.62996279     0.13400
N610        N  0.24302103  0.51615893  0.61269051    -0.82300
H611        H  0.13266915  0.48349361  0.52153843     0.18300
N612        N  0.05719617  0.39648857  0.54540759    -0.80900
H613        H  0.24506374  0.49895377  0.63567859     0.33900
H614        H  0.23955291  0.54881201  0.61986982     0.38400
H615        H  0.05233752  0.41626616  0.52472326     0.33900
H616        H  0.05337157  0.36200985  0.53532619     0.30600
H617        H  0.11969926  0.28059426  0.54869400     0.33900
H618        H  0.10344181  0.32482726  0.53547915     0.30600
H619        H  0.05053242  0.28842052  0.70365680     0.38400
H620        H  0.03351924  0.33483221  0.69721802     0.33900
C621        C  0.93379633  0.21052210  0.64557756    -0.19800
C622        C  0.92647611  0.21628257  0.61007861     0.36400
C623        C  0.90647176  0.24932133  0.60065600    -0.25800
C624        C  0.89380301  0.27705397  0.62567155     0.02800
C625        C  0.89962225  0.26995737  0.66101569     0.27600
C626        C  0.91861951  0.23610432  0.67067369    -0.24900
N627        N  0.93934012  0.18980947  0.58298422    -0.82300
H628        H  0.90045179  0.25310609  0.57344784     0.13400
C629        C  0.87053661  0.30973548  0.61418045     0.02800
N630        N  0.88804655  0.29844332  0.68709530    -0.80900
H631        H  0.92442045  0.23207482  0.69789078     0.18200
C632        C  0.82227921  0.30001787  0.62687245    -0.25700
C633        C  0.79348832  0.32061112  0.61080189     0.36300
C634        C  0.81340033  0.35154158  0.58157844    -0.19800
C635        C  0.86356684  0.36582403  0.57119628    -0.25000
C636        C  0.89254230  0.34518001  0.58733440     0.27700
H637        H  0.80521318  0.27282022  0.64737650     0.13400
N638        N  0.74204557  0.30619909  0.62170229    -0.82300
H639        H  0.87836987  0.38902585  0.54842300     0.18300
N640        N  0.94297211  0.35748383  0.57519974    -0.80900
H641        H  0.73247793  0.28209255  0.64296499     0.33900
H642        H  0.73979701  0.33899061  0.63015378     0.38400
H643        H  0.95324009  0.38354574  0.55506340     0.33900
H644        H  0.96770036  0.37536877  0.59560478     0.30600
H645        H  0.92090735  0.31933707  0.70128044     0.33900
H646        H  0.86090908  0.27292352  0.70391767     0.30600
H647        H  0.95259218  0.16533491  0.59297357     0.38400
H648        H  0.90601566  0.16694081  0.56984437     0.33900
C649        C  0.77597457  0.07257745  0.35856803    -0.19800
C650        C  0.79709333  0.09986805  0.38913813     0.36400
C651        C  0.77352865  0.12591948  0.40631026    -0.25800
C652        C  0.72868864  0.12481571  0.39372424     0.02800
C653        C  0.70753782  0.09783405  0.36268336     0.27600
C654        C  0.73180629  0.07234548  0.34535080    -0.24900
N655        N  0.84147642  0.09961491  0.40347303    -0.82300
H656        H  0.78975858  0.14632668  0.43012198     0.13400
C657        C  0.70441127  0.15037114  0.41488142     0.02800
N658        N  0.66139128  0.09452019  0.34841457    -0.80900
H659        H  0.71550911  0.05127648  0.32177541     0.18200
C660        C  0.70671069  0.19633088  0.40389845    -0.25700
C661        C  0.69037960  0.22498981  0.42573756     0.36300
C662        C  0.67226282  0.20742259  0.45955200    -0.19800
C663        C  0.66820846  0.16023251  0.46971899    -0.25000
C664        C  0.68380655  0.13146360  0.44765628     0.27700
H665        H  0.72275594  0.21053422  0.37861475     0.13400
N666        N  0.69483813  0.27292426  0.41430959    -0.82300
H667        H  0.65379926  0.14616162  0.49533577     0.18300
N668        N  0.68039904  0.08376300  0.45872251    -0.80900
H669        H  0.71229978  0.28170652  0.38990375     0.33900
H670        H  0.65816417  0.26908407  0.41103239     0.38400
H671        H  0.66483301  0.07533512  0.48368529     0.33900
H672        H  0.65522305  0.05568499  0.44223071     0.30600
H673        H  0.63479150  0.05647305  0.34873143     0.33900
H674        H  0.64615763  0.11404201  0.36361548     0.30600
H675        H  0.86921487  0.13707201  0.40556634     0.38400
H676        H  0.83246601  0.08482048  0.42844842     0.33900
C677        C  0.52086094  0.19896116  0.56852014    -0.19800
C678        C  0.51254593  0.19344981  0.60474817     0.36400
C679        C  0.46432049  0.16077476  0.61749518    -0.25800
C680        C  0.42412156  0.13417636  0.59496915     0.02800
C681        C  0.43215061  0.13946748  0.55887494     0.27600
C682        C  0.48042087  0.17195454  0.54599895    -0.24900
N683        N  0.55245956  0.22222602  0.62851799    -0.82300
H684        H  0.45753652  0.15718007  0.64522473     0.13400
C685        C  0.37315876  0.10336187  0.60977885     0.02800
N686        N  0.39120643  0.11188942  0.53554410    -0.80900
H687        H  0.48653097  0.17602570  0.51823046     0.18200
C688        C  0.33421129  0.11670071  0.60272019    -0.25700
C689        C  0.28585950  0.09009867  0.61741724     0.36300
C690        C  0.27641230  0.04928199  0.63962028    -0.19800
C691        C  0.31558279  0.03627935  0.64699539    -0.25000
C692        C  0.36389060  0.06275342  0.63206494     0.27700
H693        H  0.34184203  0.14842766  0.58596691     0.13400
N694        N  0.24634311  0.10438835  0.60997047    -0.82300
H695        H  0.30832366  0.00533119  0.66439790     0.18300
N696        N  0.40355965  0.04866946  0.63934737    -0.80900
H697        H  0.25964758  0.13530118  0.59332359     0.33900
H698        H  0.21777844  0.07431815  0.59674761     0.38400
H699        H  0.39057718  0.01818640  0.65636382     0.33900
H700        H  0.41300813  0.03602759  0.61611841     0.30600
H701        H  0.40330341  0.12020448  0.50980396     0.33900
H702        H  0.38056739  0.07336364  0.53876372     0.30600
H703        H  0.56114415  0.26037438  0.62555939     0.38400
H704        H  0.54012892  0.21316298  0.65415157     0.33900
C705        C  0.95360645  0.75351599  0.38006300    -0.19800
C706        C  0.90983843  0.71161921  0.36788289     0.36400
C707        C  0.88772483  0.66772093  0.38794318    -0.25800
C708        C  0.90800622  0.66478288  0.41992825     0.02800
C709        C  0.95131591  0.70652183  0.43240966     0.27600
C710        C  0.97358344  0.75060596  0.41237557    -0.24900
N711        N  0.88781290  0.71378323  0.33533993    -0.82300
H712        H  0.85386774  0.63565923  0.37886855     0.13400
C713        C  0.87951187  0.61915296  0.44097431     0.02800
N714        N  0.97261730  0.70387873  0.46510333    -0.80900
H715        H  0.00667199  0.78296722  0.42198573     0.18200
C716        C  0.88731016  0.57590248  0.43569558    -0.25700
C717        C  0.85243717  0.52853414  0.44875234     0.36300
C718        C  0.80944729  0.52499680  0.46748173    -0.19800
C719        C  0.80405367  0.56920983  0.47468871    -0.25000
C720        C  0.83844948  0.61611611  0.46152715     0.27700
H721        H  0.91884396  0.57856195  0.41959495     0.13400
N722        N  0.85894946  0.48389193  0.44132433    -0.82300
H723        H  0.77140076  0.56670013  0.48942628     0.18300
N724        N  0.82996681  0.66010853  0.46690842    -0.80900
H725        H  0.89257333  0.49314038  0.42738958     0.33900
H726        H  0.82942907  0.46048630  0.42514442     0.38400
H727        H  0.79700202  0.65112143  0.48157723     0.33900
H728        H  0.85987201  0.68617712  0.48164482     0.30600
H729        H  0.00495135  0.73759254  0.47019077     0.33900
H730        H  0.94628689  0.70047431  0.48456528     0.30600
H731        H  0.91400895  0.71794681  0.31561730     0.38400
H732        H  0.85576679  0.67980928  0.33029272     0.33900
C733        C  0.50962020  0.30574750  0.43720948    -0.19800
C734        C  0.48801684  0.25586769  0.42301634     0.36400
C735        C  0.44044760  0.23659967  0.40717257    -0.25800
C736        C  0.41425713  0.26593097  0.40467920     0.02800
C737        C  0.43562640  0.31557688  0.41824053     0.27600
C738        C  0.48296591  0.33493886  0.43447063    -0.24900
N739        N  0.51425188  0.22486855  0.42446285    -0.82300
H740        H  0.42364688  0.19847990  0.39654275     0.13400
C741        C  0.36445816  0.24438179  0.38752343     0.02800
N742        N  0.40909361  0.34609142  0.41534364    -0.80900
H743        H  0.49890609  0.37296701  0.44518329     0.18200
C744        C  0.32120149  0.23645142  0.40715295    -0.25700
C745        C  0.27359630  0.21817961  0.39152916     0.36300
C746        C  0.26962783  0.20891568  0.35546692    -0.19800
C747        C  0.31254605  0.21481200  0.33609456    -0.25000
C748        C  0.36012784  0.23272360  0.35178462     0.27700
H749        H  0.32474086  0.24463246  0.43472989     0.13400
N750        N  0.22926814  0.20905002  0.41201577    -0.82300
H751        H  0.30909828  0.20699499  0.30847164     0.18300
N752        N  0.40420868  0.24012267  0.33154625    -0.80900
H753        H  0.23872109  0.21805052  0.43806141     0.33900
H754        H  0.20521402  0.17027092  0.41078624     0.38400
H755        H  0.39447691  0.22959176  0.30570326     0.33900
H756        H  0.42856183  0.27886394  0.33165993     0.30600
H757        H  0.42975600  0.38168562  0.42675942     0.33900
H758        H  0.40650204  0.35215239  0.38898885     0.30600
H759        H  0.54644502  0.24145824  0.40860033     0.38400
H760        H  0.49222528  0.18886501  0.41403034     0.33900
C761        C  0.67722545  0.48690915  0.56547401    -0.19800
C762        C  0.70346240  0.49487096  0.59702738     0.36400
C763        C  0.71759017  0.54051445  0.61547847    -0.25800
C764        C  0.70667839  0.57867842  0.60263241     0.02800
C765        C  0.67765898  0.56960803  0.57241899     0.27600
C766        C  0.66249573  0.52350919  0.55445109    -0.24900
N767        N  0.71728267  0.45748532  0.60981708    -0.82300
H768        H  0.73962270  0.54730295  0.63887032     0.13400
C769        C  0.73024090  0.62969703  0.61880133     0.02800
N770        N  0.66580682  0.60830115  0.55928166    -0.80900
H771        H  0.64255098  0.51798864  0.53023418     0.18200
C772        C  0.76804880  0.66932985  0.60028171    -0.25700
C773        C  0.79213392  0.71830983  0.61427470     0.36300
C774        C  0.77833957  0.72776460  0.64798619    -0.19800
C775        C  0.74023781  0.68809012  0.66645329    -0.25000
C776        C  0.71590954  0.63903727  0.65211190     0.27700
H777        H  0.77894781  0.66206389  0.57459233     0.13400
N778        N  0.82985845  0.75718611  0.59339137    -0.82300
H779        H  0.72947802  0.69555712  0.69210946     0.18300
N780        N  0.67666456  0.59877051  0.67104724    -0.80900
H781        H  0.81205286  0.76067665  0.57108646     0.33900
H782        H  0.84457992  0.79243917  0.60575952     0.38400
H783        H  0.67070538  0.61189896  0.69520844     0.33900
H784        H  0.64303802  0.58736449  0.65727130     0.30600
H785        H  0.64481654  0.59604071  0.53652776     0.33900
H786        H  0.64245762  0.61410848  0.57761665     0.30600
H787        H  0.75669182  0.47400041  0.61206355     0.38400
H788        H  0.70152243  0.44728328  0.63460906     0.33900
C789        C  0.49947833  0.18172951  0.94944737    -0.19800
C790        C  0.45388912  0.17015038  0.96766686     0.36400
C791        C  0.40748974  0.13944691  0.95196772    -0.25800
C792        C  0.40571272  0.11949318  0.91849777     0.02800
C793        C  0.45149885  0.12735631  0.90153131     0.27600
C794        C  0.49814092  0.15885294  0.91713078    -0.24900
N795        N  0.45506281  0.19232456  0.00128556    -0.82300
H796        H  0.37256388  0.13349718  0.96511970     0.13400
C797        C  0.35602880  0.09482196  0.90057604     0.02800
N798        N  0.45034053  0.10492054  0.86801260    -0.80900
H799        H  0.53327373  0.16818674  0.90312033     0.18200
C800        C  0.35039675  0.11386780  0.86865543    -0.25700
C801        C  0.30375951  0.09305128  0.85132067     0.36300
C802        C  0.26138677  0.05291009  0.86660881    -0.19800
C803        C  0.26650161  0.03576053  0.89939415    -0.25000
C804        C  0.31351505  0.05526020  0.91608229     0.27700
H805        H  0.38263043  0.14525759  0.85721870     0.13400
N806        N  0.29945939  0.11230362  0.81820154    -0.82300
H807        H  0.23378479  0.00595680  0.91162217     0.18300
N808        N  0.31840381  0.03461241  0.94848588    -0.80900
H809        H  0.33391240  0.14219061  0.81083628     0.33900
H810        H  0.29160928  0.08349444  0.79977366     0.38400
H811        H  0.28370874  0.00538286  0.95619367     0.33900
H812        H  0.34318294  0.01837906  0.94440508     0.30600
H813        H  0.48710919  0.11464132  0.85898567     0.33900
H814        H  0.43271828  0.06566237  0.87099173     0.30600
H815        H  0.47279135  0.17783727  0.01802329     0.38400
H816        H  0.41836965  0.18110313  0.01101958     0.33900
C817        C  0.51349237  0.29938185  0.05423213    -0.19800
C818        C  0.48868644  0.33085847  0.05693335     0.36400
C819        C  0.44324535  0.31456491  0.07626951    -0.25800
C820        C  0.42261835  0.26815097  0.09360338     0.02800
C821        C  0.44959196  0.23892460  0.09343586     0.27600
C822        C  0.49457968  0.25483309  0.07394414    -0.24900
N823        N  0.50887546  0.37861884  0.03955049    -0.82300
H824        H  0.42286060  0.33738484  0.07685656     0.13400
C825        C  0.37129601  0.24887050  0.10987139     0.02800
N826        N  0.43049429  0.19251555  0.11246516    -0.80900
H827        H  0.51365346  0.23081469  0.07302856     0.18200
C828        C  0.33326249  0.20202996  0.09874112    -0.25700
C829        C  0.28403093  0.18229056  0.11283468     0.36300
C830        C  0.27232376  0.20992124  0.13878797    -0.19800
C831        C  0.31041884  0.25686092  0.14993589    -0.25000
C832        C  0.35974144  0.27664644  0.13570895     0.27700
H833        H  0.34198761  0.18097064  0.07861702     0.13400
N834        N  0.24578622  0.13429922  0.10079983    -0.82300
H835        H  0.30191216  0.27764718  0.17033738     0.18300
N836        N  0.39833099  0.32437052  0.14776962    -0.80900
H837        H  0.26062240  0.11863412  0.08192778     0.33900
H838        H  0.21771180  0.14074831  0.08878704     0.38400
H839        H  0.38367670  0.34012450  0.16670186     0.33900
H840        H  0.42612220  0.31740808  0.15976048     0.30600
H841        H  0.45438848  0.17507171  0.10931863     0.33900
H842        H  0.43100149  0.20174351  0.13877565     0.30600
H843        H  0.54373460  0.40178922  0.05084262     0.38400
H844        H  0.48571153  0.39664653  0.04385603     0.33900
C845        C  0.81238588  0.33543158  0.96975993    -0.19800
C846        C  0.83124320  0.30217390  0.98208476     0.36400
C847        C  0.85849533  0.28547358  0.95955367    -0.25800
C848        C  0.87021176  0.30315968  0.92555654     0.02800
C849        C  0.85386090  0.33840200  0.91366146     0.27600
C850        C  0.82423943  0.35340659  0.93567541    -0.24900
N851        N  0.82096615  0.28355057  0.01695929    -0.82300
H852        H  0.87027989  0.25781056  0.96855665     0.13400
C853        C  0.89805290  0.28248820  0.90287744     0.02800
N854        N  0.86721183  0.35859726  0.87934249    -0.80900
H855        H  0.81032142  0.37920073  0.92619798     0.18200
C856        C  0.87808659  0.26094108  0.87051910    -0.25700
C857        C  0.90130186  0.23738581  0.84974598     0.36300
C858        C  0.94402641  0.23327539  0.86236296    -0.19800
C859        C  0.96295632  0.25362557  0.89512065    -0.25000
C860        C  0.94200129  0.28013838  0.91471913     0.27700
H861        H  0.84393398  0.26199598  0.86159162     0.13400
N862        N  0.88155262  0.21753855  0.81606171    -0.82300
H863        H  0.99499855  0.24961476  0.90523719     0.18300
N864        N  0.96533123  0.30494284  0.94656188    -0.80900
H865        H  0.84983045  0.22332520  0.81088137     0.33900
H866        H  0.90907478  0.23814676  0.79763193     0.38400
H867        H  0.99745933  0.29971958  0.95146738     0.33900
H868        H  0.97795598  0.34378908  0.94327138     0.30600
H869        H  0.85222487  0.38401156  0.87461570     0.33900
H870        H  0.90661496  0.37934997  0.87821428     0.30600
H871        H  0.84272564  0.31362769  0.03345725     0.38400
H872        H  0.83336373  0.25585523  0.02065929     0.33900
C873        C  0.80149763  0.05308079  0.12553711    -0.19800
C874        C  0.78618205  0.08639859  0.14303022     0.36400
C875        C  0.75621720  0.10460876  0.12565958    -0.25800
C876        C  0.73947127  0.08857211  0.09171096     0.02800
C877        C  0.75569596  0.05598342  0.07406987     0.27600
C878        C  0.78778028  0.03994726  0.09079918    -0.24900
N879        N  0.79978977  0.10040957  0.17859479    -0.82300
H880        H  0.74538754  0.13107478  0.13883896     0.13400
C881        C  0.70840445  0.10953809  0.07426536     0.02800
N882        N  0.73872114  0.03850235  0.03950838    -0.80900
H883        H  0.79986085  0.01457106  0.07736415     0.18200
C884        C  0.72447256  0.13210995  0.04181598    -0.25700
C885        C  0.70325868  0.16144142  0.02760108     0.36300
C886        C  0.66717528  0.17054020  0.04696536    -0.19800
C887        C  0.64675692  0.14362634  0.07741280    -0.25000
C888        C  0.66660956  0.11229709  0.09105561     0.27700
H889        H  0.75634968  0.13027225  0.02866679     0.13400
N890        N  0.72186566  0.18658230  0.99513491    -0.82300
H891        H  0.61885805  0.15065404  0.09213098     0.18300
N892        N  0.64645810  0.08551093  0.12272728    -0.80900
H893        H  0.74934414  0.17704549  0.98443998     0.33900
H894        H  0.69157520  0.17305603  0.97790530     0.38400
H895        H  0.61624900  0.09198883  0.13188504     0.33900
H896        H  0.63154415  0.04692040  0.11687951     0.30600
H897        H  0.75184300  0.01259747  0.03094605     0.33900
H898        H  0.69928444  0.01917090  0.04039822     0.30600
H899        H  0.78193297  0.06776756  0.19346641     0.38400
H900        H  0.78583296  0.12549665  0.18750567     0.33900
C901        C  0.94563056  0.71729592  0.15146732    -0.19800
C902        C  0.90991505  0.71431775  0.12646017     0.36400
C903        C  0.87851657  0.66735113  0.11140898    -0.25800
C904        C  0.88241619  0.62366984  0.12076592     0.02800
C905        C  0.91811013  0.62642684  0.14555543     0.27600
C906        C  0.94862058  0.67318962  0.16129780    -0.24900
N907        N  0.90504257  0.75886710  0.11700523    -0.82300
H908        H  0.85096647  0.66468708  0.09223548     0.13400
C909        C  0.84968470  0.57540653  0.10364292     0.02800
N910        N  0.92414526  0.58210912  0.15388582    -0.80900
H911        H  0.97415646  0.67501541  0.18163258     0.18200
C912        C  0.86405422  0.56463549  0.07095569    -0.25700
C913        C  0.83495202  0.51831344  0.05419554     0.36300
C914        C  0.79104460  0.48226744  0.07082254    -0.19800
C915        C  0.77616629  0.49364526  0.10321711    -0.25000
C916        C  0.80462078  0.54045552  0.11956402     0.27700
H917        H  0.89840318  0.59225383  0.05876671     0.13400
N918        N  0.85034930  0.50729455  0.02082771    -0.82300
H919        H  0.74180373  0.46619221  0.11548408     0.18300
N920        N  0.78713637  0.55330733  0.15154209    -0.80900
H921        H  0.88323523  0.53804299  0.01214533     0.33900
H922        H  0.85964141  0.47728914  0.02385558     0.38400
H923        H  0.75251608  0.52389555  0.15917510     0.33900
H924        H  0.81296366  0.55718721  0.17089895     0.30600
H925        H  0.95324592  0.59107158  0.17175513     0.33900
H926        H  0.89096736  0.55642821  0.16605188     0.30600
H927        H  0.93882867  0.78364026  0.10502267     0.38400
H928        H  0.87651307  0.75000985  0.09869706     0.33900
C929        C  0.79603775  0.73084964  0.85642490    -0.19800
C930        C  0.82193513  0.72221328  0.88401245     0.36400
C931        C  0.80185696  0.67413901  0.89905301    -0.25800
C932        C  0.75630050  0.63502854  0.88728455     0.02800
C933        C  0.73066785  0.64349453  0.85956124     0.27600
C934        C  0.75119204  0.69120441  0.84409569    -0.24900
N935        N  0.86805391  0.76234876  0.89685933    -0.82300
H936        H  0.82132324  0.66720596  0.92037734     0.13400
C937        C  0.73637925  0.58503925  0.90388441     0.02800
N938        N  0.68397754  0.60361367  0.84729763    -0.80900
H939        H  0.73186558  0.69779563  0.82255562     0.18200
C940        C  0.69056696  0.56689162  0.92248842    -0.25700
C941        C  0.67100373  0.51983103  0.93905219     0.36300
C942        C  0.69736816  0.48990310  0.93608540    -0.19800
C943        C  0.74353071  0.50865429  0.91759953    -0.25000
C944        C  0.76324009  0.55586004  0.90146246     0.27700
H945        H  0.67057916  0.59004200  0.92458614     0.13400
N946        N  0.62534100  0.50310976  0.95950625    -0.82300
H947        H  0.76411252  0.48610232  0.91533036     0.18300
N948        N  0.81024596  0.57423826  0.88239123    -0.80900
H949        H  0.61063569  0.52943797  0.95872626     0.33900
H950        H  0.63500004  0.50182299  0.98529768     0.38400
H951        H  0.82553473  0.54839978  0.88333461     0.33900
H952        H  0.80230797  0.57674278  0.85638767     0.30600
H953        H  0.66958435  0.61631319  0.82705392     0.33900
H954        H  0.69205165  0.57499425  0.83697285     0.30600
H955        H  0.85940487  0.79049464  0.90733743     0.38400
H956        H  0.88233148  0.74958056  0.91712859     0.33900
loop_ 
_geom_bond_atom_site_label_1 
_geom_bond_atom_site_label_2 
_geom_bond_distance 
_geom_bond_site_symmetry_2 
_ccdc_geom_bond_type 
O1           Ni7   1.906       .  S
O1           C22   1.270       .  A
O2          Ni25   1.880       .  S
O2           C11   1.266       .  A
O3           Ni7   1.880       .  S
O3          Ni25   1.882   1_554  S
O3          Ni19   1.916       .  S
O3           H26   0.966       .  S
C4           O21   1.281       .  A
C4           O13   1.280       .  A
C4          C789   1.472       .  S
O5          Ni24   1.955       .  S
O5           C11   1.281       .  A
O6          Ni24   1.922   1_554  S
O6            C8   1.274       .  A
Ni7          O10   1.911       .  S
Ni7          O12   1.914       .  S
C8           O18   1.274       .  A
C8          C817   1.496       .  S
O9          Ni25   1.929   1_554  S
O9           C15   1.276       .  A
O10          C15   1.273       .  A
C11         C942   1.483       .  S
O12          C14   1.268   1_554  A
O13         Ni24   1.935       .  S
C14          O20   1.272       .  A
C14         C845   1.486       .  S
C15         C914   1.470       .  S
H16          O17   0.967       .  S
O17         Ni25   1.896       .  S
O17         Ni19   1.896   1_556  S
O17         Ni24   1.887       .  S
O18         Ni19   1.930       .  S
Ni19         O23   1.920       .  S
Ni19         O21   1.923   1_554  S
O20         Ni25   1.928       .  S
C22          O23   1.273       .  A
C22         C886   1.464       .  S
O27         Ni33   1.955       .  S
O27          C48   1.280       .  A
O28         Ni51   1.933       .  S
O28          C37   1.272       .  A
O29         Ni33   1.896       .  S
O29         Ni51   1.911       .  S
O29         Ni45   1.904       .  S
O29          H52   0.958       .  S
C30          O47   1.279       .  A
C30          O39   1.276       .  A
C30         C677   1.482       .  S
O31         Ni50   1.897       .  S
O31          C37   1.263       .  A
O32         Ni50   1.911       .  S
O32          C34   1.267       .  A
Ni33         O36   1.936       .  S
Ni33         O38   1.912       .  S
C34          O44   1.266       .  A
C34         C662   1.486       .  S
O35         Ni51   1.922       .  S
O35          C41   1.280       .  A
O36          C41   1.281       .  A
C37         C634   1.465       .  S
O38          C40   1.272       .  A
O39         Ni50   1.911       .  S
C40          O46   1.273       .  A
C40         C761   1.483       .  S
C41         C718   1.482       .  S
H42          O43   0.968       .  S
O43         Ni51   1.921       .  S
O43         Ni45   1.878       .  S
O43         Ni50   1.893       .  S
O44         Ni45   1.919       .  S
Ni45         O49   1.877       .  S
Ni45         O47   1.928       .  S
O46         Ni51   1.931       .  S
C48          O49   1.261       .  A
C48         C733   1.490       .  S
O53         Ni61   1.959       .  S
O53          C63   1.291       .  A
O54         Ni61   1.981   1_565  S
O54          C64   1.297       .  A
O55         Ni61   1.986       .  S
O55          C65   1.295       .  A
O56         Ni61   1.959   1_565  S
O56          C66   1.286       .  A
O57         Ni62   1.912   1_565  S
O57          C66   1.267       .  A
O58         Ni62   1.865       .  S
O58          C65   1.251       .  A
O59         Ni62   1.845   1_565  S
O59          C64   1.241       .  A
O60         Ni62   1.903       .  S
O60          C63   1.266       .  A
Ni61        Ni62   2.348       .  S
C63          C99   1.524       .  S
C64         C114   1.490       .  S
C65         C139   1.509       .  S
C66         C122   1.540       .  S
O67         Ni75   1.979       .  S
O67          C77   1.292       .  A
O68         Ni75   1.975       .  S
O68          C78   1.292       .  A
O69         Ni75   1.958       .  S
O69          C79   1.292       .  A
O70         Ni75   1.957       .  S
O70          C80   1.292       .  A
O71         Ni76   1.899       .  S
O71          C80   1.265       .  A
O72         Ni76   1.895       .  S
O72          C79   1.263       .  A
O73         Ni76   1.863       .  S
O73          C78   1.251       .  A
O74         Ni76   1.869       .  S
O74          C77   1.252       .  A
Ni75        Ni76   2.301       .  S
C77         C106   1.519       .  S
C78         C138   1.515       .  S
C79         C131   1.497       .  S
C80          C98   1.502       .  S
O81         Ni89   1.962       .  S
O81          C91   1.291       .  A
O82         Ni89   1.981   1_655  S
O82          C92   1.296       .  A
O83         Ni89   1.984       .  S
O83          C93   1.295       .  A
O84         Ni89   1.965   1_655  S
O84          C94   1.288       .  A
O85         Ni90   1.909   1_655  S
O85          C94   1.266       .  A
O86         Ni90   1.860       .  S
O86          C93   1.251       .  A
O87         Ni90   1.848   1_655  S
O87          C92   1.242       .  A
O88         Ni90   1.908       .  S
O88          C91   1.268       .  A
Ni89        Ni90   2.347       .  S
C91         C130   1.530       .  S
C92         C123   1.489       .  S
C93         C107   1.504       .  S
C94         C115   1.541       .  S
C95         C621   1.483       .  S
C95          C96   1.408   1_655  A
C95         C100   1.403       .  A
C96         C593   1.488       .  S
C96          C97   1.397       .  A
C97          C98   1.407       .  A
C97         H102   1.085       .  S
C98          C99   1.462   1_455  A
C99         C100   1.413       .  A
C100        H101   1.084       .  S
C103        C565   1.487       .  S
C103        C104   1.414   1_565  A
C103        C108   1.402       .  A
C104        C690   1.483       .  S
C104        C105   1.400       .  A
C105        C106   1.399       .  A
C105        H110   1.084       .  S
C106        C107   1.465   1_545  A
C107        C108   1.402       .  A
C108        H109   1.084       .  S
C111        C929   1.483       .  S
C111        C112   1.412       .  A
C111        C116   1.405       .  A
C112        C537   1.485       .  S
C112        C113   1.394       .  A
C113        C114   1.399       .  A
C113        H118   1.085       .  S
C114        C115   1.468       .  A
C115        C116   1.408       .  A
C116        H117   1.084       .  S
C119        C774   1.483       .  S
C119        C120   1.408       .  A
C119        C124   1.396       .  A
C120        C509   1.479       .  S
C120        C121   1.402       .  A
C121        C122   1.408       .  A
C121        H126   1.084       .  S
C122        C123   1.468       .  A
C123        C124   1.401       .  A
C124        H125   1.085       .  S
C127        C802   1.497       .  S
C127        C128   1.412   1_545  A
C127        C132   1.399       .  A
C128        C494   1.484       .  S
C128        C129   1.405       .  A
C129        C130   1.412       .  A
C129        H134   1.084       .  S
C130        C131   1.461   1_565  A
C131        C132   1.407       .  A
C132        H133   1.084       .  S
C135        C858   1.490       .  S
C135        C136   1.417   1_655  A
C135        C140   1.407       .  A
C136        C466   1.485       .  S
C136        C137   1.395       .  A
C137        C138   1.397       .  A
C137        H142   1.085       .  S
C138        C139   1.465   1_455  A
C139        C140   1.404       .  A
C140        H141   1.084       .  S
O143       Ni149   1.902       .  S
O143        C164   1.264       .  A
O144       Ni167   1.884       .  S
O144        C153   1.264       .  A
O145       Ni149   1.890       .  S
O145       Ni167   1.885       .  S
O145       Ni161   1.935       .  S
O145        H168   0.970       .  S
C146        O163   1.287       .  A
C146        O155   1.279       .  A
C146        C606   1.487       .  S
O147       Ni166   1.948       .  S
O147        C153   1.279       .  A
O148       Ni166   1.919       .  S
O148        C150   1.273       .  A
Ni149       O152   1.920       .  S
Ni149       O154   1.906       .  S
C150        O160   1.272       .  A
C150        C369   1.488       .  S
O151       Ni167   1.932       .  S
O151        C157   1.278       .  A
O152        C157   1.278       .  A
C153        C522   1.488       .  S
O154        C156   1.266       .  A
O155       Ni166   1.921       .  S
C156        O162   1.271       .  A
C156        C578   1.478       .  S
C157        C438   1.490       .  S
H158        O159   0.967       .  S
O159       Ni167   1.897       .  S
O159       Ni161   1.904       .  S
O159       Ni166   1.889       .  S
O160       Ni161   1.925       .  S
Ni161       O165   1.937       .  S
Ni161       O163   1.941       .  S
O162       Ni167   1.929       .  S
C164        O165   1.276       .  A
C164        C410   1.467       .  S
O169       Ni175   1.946       .  S
O169        C190   1.278       .  A
O170       Ni193   1.931       .  S
O170        C179   1.273       .  A
O171       Ni175   1.894       .  S
O171       Ni193   1.903   1_554  S
O171       Ni187   1.896       .  S
O171        H194   0.964       .  S
C172        O189   1.276       .  A
C172        O181   1.278       .  A
C172        C453   1.480       .  S
O173       Ni192   1.908       .  S
O173        C179   1.265       .  A
O174       Ni192   1.912       .  S
O174        C176   1.267   1_556  A
Ni175       O178   1.920       .  S
Ni175       O180   1.922   1_554  S
C176        O186   1.269       .  A
C176        C313   1.486       .  S
O177       Ni193   1.918   1_554  S
O177        C183   1.280       .  A
O178        C183   1.279       .  A
C179        C481   1.465       .  S
O180        C182   1.274       .  A
O181       Ni192   1.919       .  S
C182        O188   1.273       .  A
C182        C550   1.500       .  S
C183        C341   1.463       .  S
H184        O185   0.966       .  S
O185       Ni193   1.920       .  S
O185       Ni187   1.884   1_556  S
O185       Ni192   1.895       .  S
O186       Ni187   1.926       .  S
Ni187       O191   1.887       .  S
Ni187       O189   1.918   1_554  S
O188       Ni193   1.928       .  S
C190        O191   1.264       .  A
C190        C298   1.483       .  S
O195       Ni203   1.900   1_655  S
O195        C205   1.266       .  A
O196       Ni203   1.841       .  S
O196        C206   1.239       .  A
O197       Ni203   1.862   1_655  S
O197        C207   1.251       .  A
O198       Ni203   1.911       .  S
O198        C208   1.266       .  A
O199       Ni204   1.959   1_455  S
O199        C208   1.285       .  A
O200       Ni204   1.987       .  S
O200        C207   1.295       .  A
O201       Ni204   1.987   1_455  S
O201        C206   1.298       .  A
O202       Ni204   1.965       .  S
O202        C205   1.292       .  A
Ni203      Ni204   2.347   1_455  S
C205        C248   1.524       .  S
C206        C256   1.489       .  S
C207        C226   1.509       .  S
C208        C264   1.538       .  S
O209       Ni217   1.870       .  S
O209        C219   1.254       .  A
O210       Ni217   1.872       .  S
O210        C220   1.252       .  A
O211       Ni217   1.888       .  S
O211        C221   1.262       .  A
O212       Ni217   1.892       .  S
O212        C222   1.262       .  A
O213       Ni218   1.958       .  S
O213        C222   1.293       .  A
O214       Ni218   1.955       .  S
O214        C221   1.292       .  A
O215       Ni218   1.978       .  S
O215        C220   1.292       .  A
O216       Ni218   1.978       .  S
O216        C219   1.292       .  A
Ni217      Ni218   2.298       .  S
C219        C227   1.520       .  S
C220        C281   1.516       .  S
C221        C249   1.492       .  S
C222        C272   1.495       .  S
C223        C425   1.491       .  S
C223        C224   1.413   1_565  A
C223        C228   1.402       .  A
C224        C649   1.481       .  S
C224        C225   1.404       .  A
C225        C226   1.403       .  A
C225        H230   1.084       .  S
C226        C227   1.465   1_545  A
C227        C228   1.403       .  A
C228        H229   1.084       .  S
O231       Ni239   1.910   1_565  S
O231        C241   1.268       .  A
O232       Ni239   1.855       .  S
O232        C242   1.245       .  A
O233       Ni239   1.865   1_565  S
O233        C243   1.253       .  A
O234       Ni239   1.911       .  S
O234        C244   1.266       .  A
O235       Ni240   1.964   1_545  S
O235        C244   1.288       .  A
O236       Ni240   1.981       .  S
O236        C243   1.295       .  A
O237       Ni240   1.980   1_545  S
O237        C242   1.295       .  A
O238       Ni240   1.961       .  S
O238        C241   1.291       .  A
Ni239      Ni240   2.348   1_545  S
C241        C273   1.529       .  S
C242        C265   1.493       .  S
C243        C280   1.505       .  S
C244        C257   1.542       .  S
C245        C354   1.484       .  S
C245        C246   1.411   1_565  A
C245        C250   1.391       .  A
C246        C873   1.487       .  S
C246        C247   1.406       .  A
C247        C248   1.411       .  A
C247        H252   1.084       .  S
C248        C249   1.460   1_545  A
C249        C250   1.399       .  A
C250        H251   1.085       .  S
C253        C746   1.482       .  S
C253        C254   1.414       .  A
C253        C258   1.404       .  A
C254        C382   1.490       .  S
C254        C255   1.399       .  A
C255        C256   1.399       .  A
C255        H260   1.085       .  S
C256        C257   1.468       .  A
C257        C258   1.406       .  A
C258        H259   1.084       .  S
C261        C830   1.496       .  S
C261        C262   1.415       .  A
C261        C266   1.402       .  A
C262        C285   1.482       .  S
C262        C263   1.405       .  A
C263        C264   1.408       .  A
C263        H268   1.084       .  S
C264        C265   1.464       .  A
C265        C266   1.401       .  A
C266        H267   1.084       .  S
C269        C397   1.486       .  S
C269        C270   1.411   1_455  A
C269        C274   1.406       .  A
C270        C705   1.493       .  S
C270        C271   1.398       .  A
C271        C272   1.403       .  A
C271        H276   1.085       .  S
C272        C273   1.461   1_655  A
C273        C274   1.414       .  A
C274        H275   1.084       .  S
C277        C901   1.482       .  S
C277        C278   1.414   1_655  A
C277        C282   1.398       .  A
C278        C326   1.484       .  S
C278        C279   1.403       .  A
C279        C280   1.404       .  A
C279        H284   1.084       .  S
C280        C281   1.464   1_455  A
C281        C282   1.397       .  A
C282        H283   1.085       .  S
C285        C286   1.406       .  A
C285        C290   1.403       .  A
C286        C287   1.401       .  A
C286        N291   1.432       .  S
C287        C288   1.403       .  A
C287        H292   1.084       .  S
C288        C293   1.485       .  S
C288        C289   1.413       .  A
C289        C290   1.407       .  A
C289        N294   1.438       .  S
C290        H295   1.084       .  S
N291        H311   1.046       .  S
N291        H312   1.045       .  S
C293        C296   1.402       .  A
C293        C300   1.411       .  A
N294        H309   1.046       .  S
N294        H310   1.045       .  S
C296        C297   1.405       .  A
C296        H301   1.084       .  S
C297        C298   1.417       .  A
C297        N302   1.439       .  S
C298        C299   1.404       .  A
C299        C300   1.405       .  A
C299        H303   1.083       .  S
C300        N304   1.438       .  S
N302        H305   1.046       .  S
N302        H306   1.046       .  S
N304        H307   1.045       .  S
N304        H308   1.046       .  S
C313        C314   1.415       .  A
C313        C318   1.406       .  A
C314        C315   1.407       .  A
C314        N319   1.438       .  S
C315        C316   1.404       .  A
C315        H320   1.083       .  S
C316        C321   1.490       .  S
C316        C317   1.411       .  A
C317        C318   1.406       .  A
C317        N322   1.438       .  S
C318        H323   1.084       .  S
N319        H339   1.046       .  S
N319        H340   1.046       .  S
C321        C324   1.405       .  A
C321        C328   1.412       .  A
N322        H337   1.046       .  S
N322        H338   1.046       .  S
C324        C325   1.405       .  A
C324        H329   1.084       .  S
C325        C326   1.408       .  A
C325        N330   1.437       .  S
C326        C327   1.403       .  A
C327        C328   1.407       .  A
C327        H331   1.083       .  S
C328        N332   1.437       .  S
N330        H333   1.046       .  S
N330        H334   1.044       .  S
N332        H335   1.046       .  S
N332        H336   1.046       .  S
C341        C342   1.408       .  A
C341        C346   1.398       .  A
C342        C343   1.402       .  A
C342        N347   1.438       .  S
C343        C344   1.403       .  A
C343        H348   1.084       .  S
C344        C349   1.484       .  S
C344        C345   1.414       .  A
C345        C346   1.404       .  A
C345        N350   1.436       .  S
C346        H351   1.084       .  S
N347        H367   1.046       .  S
N347        H368   1.046       .  S
C349        C352   1.404       .  A
C349        C356   1.410       .  A
N350        H365   1.046       .  S
N350        H366   1.042       .  S
C352        C353   1.400       .  A
C352        H357   1.084       .  S
C353        C354   1.416       .  A
C353        N358   1.439       .  S
C354        C355   1.405       .  A
C355        C356   1.402       .  A
C355        H359   1.084       .  S
C356        N360   1.437       .  S
N358        H361   1.046       .  S
N358        H362   1.042       .  S
N360        H363   1.046       .  S
N360        H364   1.045       .  S
C369        C370   1.417       .  A
C369        C374   1.407       .  A
C370        C371   1.406       .  A
C370        N375   1.438       .  S
C371        C372   1.399       .  A
C371        H376   1.084       .  S
C372        C377   1.479       .  S
C372        C373   1.408       .  A
C373        C374   1.408       .  A
C373        N378   1.438       .  S
C374        H379   1.083       .  S
N375        H395   1.046       .  S
N375        H396   1.046       .  S
C377        C380   1.402       .  A
C377        C384   1.409       .  A
N378        H393   1.045       .  S
N378        H394   1.045       .  S
C380        C381   1.408       .  A
C380        H385   1.084       .  S
C381        C382   1.413       .  A
C381        N386   1.437       .  S
C382        C383   1.404       .  A
C383        C384   1.403       .  A
C383        H387   1.084       .  S
C384        N388   1.438       .  S
N386        H389   1.046       .  S
N386        H390   1.046       .  S
N388        H391   1.046       .  S
N388        H392   1.045       .  S
C397        C398   1.411       .  A
C397        C402   1.401       .  A
C398        C399   1.402       .  A
C398        N403   1.431       .  S
C399        C400   1.398       .  A
C399        H404   1.084       .  S
C400        C405   1.477       .  S
C400        C401   1.413       .  A
C401        C402   1.407       .  A
C401        N406   1.438       .  S
C402        H407   1.084       .  S
N403        H423   1.045   1_455  S
N403        H424   1.045       .  S
C405        C408   1.397       .  A
C405        C412   1.412       .  A
N406        H421   1.046       .  S
N406        H422   1.045       .  S
C408        C409   1.399       .  A
C408        H413   1.084       .  S
C409        C410   1.409       .  A
C409        N414   1.433       .  S
C410        C411   1.403       .  A
C411        C412   1.410       .  A
C411        H415   1.084       .  S
C412        N416   1.438       .  S
N414        H417   1.045       .  S
N414        H418   1.046       .  S
N416        H419   1.046       .  S
N416        H420   1.045       .  S
C425        C426   1.411       .  A
C425        C430   1.405       .  A
C426        C427   1.405       .  A
C426        N431   1.438       .  S
C427        C428   1.403       .  A
C427        H432   1.084       .  S
C428        C433   1.489       .  S
C428        C429   1.412       .  A
C429        C430   1.409       .  A
C429        N434   1.437       .  S
C430        H435   1.083       .  S
N431        H451   1.046       .  S
N431        H452   1.046       .  S
C433        C436   1.403       .  A
C433        C440   1.410       .  A
N434        H449   1.046       .  S
N434        H450   1.046       .  S
C436        C437   1.408       .  A
C436        H441   1.084       .  S
C437        C438   1.417       .  A
C437        N442   1.438       .  S
C438        C439   1.406       .  A
C439        C440   1.407       .  A
C439        H443   1.083       .  S
C440        N444   1.438       .  S
N442        H445   1.046       .  S
N442        H446   1.045       .  S
N444        H447   1.046       .  S
N444        H448   1.046       .  S
C453        C454   1.412       .  A
C453        C458   1.405       .  A
C454        C455   1.400       .  A
C454        N459   1.433       .  S
C455        C456   1.402       .  A
C455        H460   1.084       .  S
C456        C461   1.482       .  S
C456        C457   1.412       .  A
C457        C458   1.406       .  A
C457        N462   1.438       .  S
C458        H463   1.083       .  S
N459        H479   1.046       .  S
N459        H480   1.045       .  S
C461        C464   1.403       .  A
C461        C468   1.411       .  A
N462        H477   1.045       .  S
N462        H478   1.046       .  S
C464        C465   1.400       .  A
C464        H469   1.084       .  S
C465        C466   1.417       .  A
C465        N470   1.438       .  S
C466        C467   1.404       .  A
C467        C468   1.402       .  A
C467        H471   1.084       .  S
C468        N472   1.438       .  S
N470        H473   1.046       .  S
N470        H474   1.042   1_455  S
N472        H475   1.046       .  S
N472        H476   1.046       .  S
C481        C482   1.407       .  A
C481        C486   1.402       .  A
C482        C483   1.406       .  A
C482        N487   1.437       .  S
C483        C484   1.404       .  A
C483        H488   1.083       .  S
C484        C489   1.481       .  S
C484        C485   1.409       .  A
C485        C486   1.405       .  A
C485        N490   1.438       .  S
C486        H491   1.084       .  S
N487        H507   1.045       .  S
N487        H508   1.046       .  S
C489        C492   1.401       .  A
C489        C496   1.412       .  A
N490        H505   1.046       .  S
N490        H506   1.046       .  S
C492        C493   1.406       .  A
C492        H497   1.084       .  S
C493        C494   1.413       .  A
C493        N498   1.437       .  S
C494        C495   1.400       .  A
C495        C496   1.404       .  A
C495        H499   1.084       .  S
C496        N500   1.438       .  S
N498        H501   1.046       .  S
N498        H502   1.045       .  S
N500        H503   1.046       .  S
N500        H504   1.046       .  S
C509        C510   1.410       .  A
C509        C514   1.402       .  A
C510        C511   1.406       .  A
C510        N515   1.438       .  S
C511        C512   1.402       .  A
C511        H516   1.084       .  S
C512        C517   1.474       .  S
C512        C513   1.407       .  A
C513        C514   1.400       .  A
C513        N518   1.438       .  S
C514        H519   1.083       .  S
N515        H535   1.045       .  S
N515        H536   1.046       .  S
C517        C520   1.397       .  A
C517        C524   1.405       .  A
N518        H533   1.046       .  S
N518        H534   1.046       .  S
C520        C521   1.404       .  A
C520        H525   1.084       .  S
C521        C522   1.421       .  A
C521        N526   1.439       .  S
C522        C523   1.408       .  A
C523        C524   1.404       .  A
C523        H527   1.083       .  S
C524        N528   1.437       .  S
N526        H529   1.046       .  S
N526        H530   1.044       .  S
N528        H531   1.046       .  S
N528        H532   1.044       .  S
C537        C538   1.408       .  A
C537        C542   1.403       .  A
C538        C539   1.404       .  A
C538        N543   1.437       .  S
C539        C540   1.405       .  A
C539        H544   1.084       .  S
C540        C545   1.490       .  S
C540        C541   1.413       .  A
C541        C542   1.408       .  A
C541        N546   1.437       .  S
C542        H547   1.084       .  S
N543        H563   1.045       .  S
N543        H564   1.045       .  S
C545        C548   1.401       .  A
C545        C552   1.411       .  A
N546        H561   1.046       .  S
N546        H562   1.046       .  S
C548        C549   1.403       .  A
C548        H553   1.084       .  S
C549        C550   1.419       .  A
C549        N554   1.433       .  S
C550        C551   1.411       .  A
C551        C552   1.411       .  A
C551        H555   1.083       .  S
C552        N556   1.438       .  S
N554        H557   1.046       .  S
N554        H558   1.046       .  S
N556        H559   1.045       .  S
N556        H560   1.046       .  S
C565        C566   1.412       .  A
C565        C570   1.403       .  A
C566        C567   1.404       .  A
C566        N571   1.437       .  S
C567        C568   1.403       .  A
C567        H572   1.084       .  S
C568        C573   1.486       .  S
C568        C569   1.411       .  A
C569        C570   1.405       .  A
C569        N574   1.437       .  S
C570        H575   1.084       .  S
N571        H591   1.045       .  S
N571        H592   1.046       .  S
C573        C576   1.407       .  A
C573        C580   1.410       .  A
N574        H589   1.046       .  S
N574        H590   1.046       .  S
C576        C577   1.410       .  A
C576        H581   1.084       .  S
C577        C578   1.411       .  A
C577        N582   1.438       .  S
C578        C579   1.405       .  A
C579        C580   1.401       .  A
C579        H583   1.084       .  S
C580        N584   1.439       .  S
N582        H585   1.046       .  S
N582        H586   1.045       .  S
N584        H587   1.046       .  S
N584        H588   1.046       .  S
C593        C594   1.411       .  A
C593        C598   1.401       .  A
C594        C595   1.405       .  A
C594        N599   1.437       .  S
C595        C596   1.404       .  A
C595        H600   1.084       .  S
C596        C601   1.487       .  S
C596        C597   1.415       .  A
C597        C598   1.409       .  A
C597        N602   1.439       .  S
C598        H603   1.084       .  S
N599        H619   1.046       .  S
N599        H620   1.046       .  S
C601        C604   1.397       .  A
C601        C608   1.415       .  A
N602        H617   1.046       .  S
N602        H618   1.042       .  S
C604        C605   1.399       .  A
C604        H609   1.084       .  S
C605        C606   1.417       .  A
C605        N610   1.439       .  S
C606        C607   1.406       .  A
C607        C608   1.417       .  A
C607        H611   1.083       .  S
C608        N612   1.438       .  S
N610        H613   1.046       .  S
N610        H614   1.046       .  S
N612        H615   1.045       .  S
N612        H616   1.042       .  S
C621        C622   1.415       .  A
C621        C626   1.403       .  A
C622        C623   1.401       .  A
C622        N627   1.439       .  S
C623        C624   1.405       .  A
C623        H628   1.084       .  S
C624        C629   1.487       .  S
C624        C625   1.409       .  A
C625        C626   1.403       .  A
C625        N630   1.432       .  S
C626        H631   1.084       .  S
N627        H647   1.043       .  S
N627        H648   1.046       .  S
C629        C632   1.402       .  A
C629        C636   1.415       .  A
N630        H645   1.046       .  S
N630        H646   1.046       .  S
C632        C633   1.401       .  A
C632        H637   1.083       .  S
C633        C634   1.410       .  A
C633        N638   1.439       .  S
C634        C635   1.399       .  A
C635        C636   1.408       .  A
C635        H639   1.084       .  S
C636        N640   1.437       .  S
N638        H641   1.046       .  S
N638        H642   1.045       .  S
N640        H643   1.046       .  S
N640        H644   1.045       .  S
C649        C650   1.405       .  A
C649        C654   1.404       .  A
C650        C651   1.398       .  A
C650        N655   1.432       .  S
C651        C652   1.403       .  A
C651        H656   1.084       .  S
C652        C657   1.479       .  S
C652        C653   1.417       .  A
C653        C654   1.404       .  A
C653        N658   1.438       .  S
C654        H659   1.084       .  S
N655        H675   1.045       .  S
N655        H676   1.046       .  S
C657        C660   1.401       .  A
C657        C664   1.407       .  A
N658        H673   1.046       .  S
N658        H674   1.043       .  S
C660        C661   1.408       .  A
C660        H665   1.084       .  S
C661        C662   1.418       .  A
C661        N666   1.438       .  S
C662        C663   1.406       .  A
C663        C664   1.402       .  A
C663        H667   1.084       .  S
C664        N668   1.438       .  S
N666        H669   1.046       .  S
N666        H670   1.045       .  S
N668        H671   1.045       .  S
N668        H672   1.046       .  S
C677        C678   1.415       .  A
C677        C682   1.406       .  A
C678        C679   1.403       .  A
C678        N683   1.438       .  S
C679        C680   1.400       .  A
C679        H684   1.084       .  S
C680        C685   1.479       .  S
C680        C681   1.409       .  A
C681        C682   1.404       .  A
C681        N686   1.438       .  S
C682        H687   1.084       .  S
N683        H703   1.046       .  S
N683        H704   1.046       .  S
C685        C688   1.401       .  A
C685        C692   1.410       .  A
N686        H701   1.046       .  S
N686        H702   1.046       .  S
C688        C689   1.401       .  A
C688        H693   1.084       .  S
C689        C690   1.412       .  A
C689        N694   1.439       .  S
C690        C691   1.404       .  A
C691        C692   1.404       .  A
C691        H695   1.084       .  S
C692        N696   1.438       .  S
N694        H697   1.045       .  S
N694        H698   1.045       .  S
N696        H699   1.046       .  S
N696        H700   1.046       .  S
C705        C706   1.413       .  A
C705        C710   1.408       .  A
C706        C707   1.404       .  A
C706        N711   1.439       .  S
C707        C708   1.401       .  A
C707        H712   1.084       .  S
C708        C713   1.480       .  S
C708        C709   1.408       .  A
C709        C710   1.407       .  A
C709        N714   1.437       .  S
C710        H715   1.083   1_655  S
N711        H731   1.044       .  S
N711        H732   1.046       .  S
C713        C716   1.405       .  A
C713        C720   1.406       .  A
N714        H729   1.046   1_655  S
N714        H730   1.044       .  S
C716        C717   1.413       .  A
C716        H721   1.084       .  S
C717        C718   1.412       .  A
C717        N722   1.437       .  S
C718        C719   1.406       .  A
C719        C720   1.401       .  A
C719        H723   1.084       .  S
C720        N724   1.438       .  S
N722        H725   1.046       .  S
N722        H726   1.046       .  S
N724        H727   1.046       .  S
N724        H728   1.045       .  S
C733        C734   1.422       .  A
C733        C738   1.407       .  A
C734        C735   1.404       .  A
C734        N739   1.439       .  S
C735        C736   1.398       .  A
C735        H740   1.084       .  S
C736        C741   1.479       .  S
C736        C737   1.408       .  A
C737        C738   1.405       .  A
C737        N742   1.438       .  S
C738        H743   1.083       .  S
N739        H759   1.046       .  S
N739        H760   1.046       .  S
C741        C744   1.401       .  A
C741        C748   1.410       .  A
N742        H757   1.045       .  S
N742        H758   1.046       .  S
C744        C745   1.403       .  A
C744        H749   1.084       .  S
C745        C746   1.411       .  A
C745        N750   1.437       .  S
C746        C747   1.403       .  A
C747        C748   1.404       .  A
C747        H751   1.084       .  S
C748        N752   1.438       .  S
N750        H753   1.046       .  S
N750        H754   1.045       .  S
N752        H755   1.046       .  S
N752        H756   1.046       .  S
C761        C762   1.413       .  A
C761        C766   1.406       .  A
C762        C763   1.405       .  A
C762        N767   1.433       .  S
C763        C764   1.402       .  A
C763        H768   1.084       .  S
C764        C769   1.480       .  S
C764        C765   1.408       .  A
C765        C766   1.403       .  A
C765        N770   1.437       .  S
C766        H771   1.083       .  S
N767        H787   1.046       .  S
N767        H788   1.046       .  S
C769        C772   1.402       .  A
C769        C776   1.407       .  A
N770        H785   1.046       .  S
N770        H786   1.043       .  S
C772        C773   1.400       .  A
C772        H777   1.084       .  S
C773        C774   1.417       .  A
C773        N778   1.439       .  S
C774        C775   1.405       .  A
C775        C776   1.407       .  A
C775        H779   1.084       .  S
C776        N780   1.437       .  S
N778        H781   1.046       .  S
N778        H782   1.043       .  S
N780        H783   1.046       .  S
N780        H784   1.046       .  S
C789        C790   1.409       .  A
C789        C794   1.401       .  A
C790        C791   1.402       .  A
C790        N795   1.437   1_556  S
C791        C792   1.402       .  A
C791        H796   1.083       .  S
C792        C797   1.491       .  S
C792        C793   1.415       .  A
C793        C794   1.410       .  A
C793        N798   1.437       .  S
C794        H799   1.084       .  S
N795        H815   1.045       .  S
N795        H816   1.046       .  S
C797        C800   1.405       .  A
C797        C804   1.411       .  A
N798        H813   1.046       .  S
N798        H814   1.046       .  S
C800        C801   1.407       .  A
C800        H805   1.083       .  S
C801        C802   1.413       .  A
C801        N806   1.438       .  S
C802        C803   1.406       .  A
C803        C804   1.405       .  A
C803        H807   1.083       .  S
C804        N808   1.438       .  S
N806        H809   1.046       .  S
N806        H810   1.045       .  S
N808        H811   1.046       .  S
N808        H812   1.045       .  S
C817        C818   1.417       .  A
C817        C822   1.410       .  A
C818        C819   1.411       .  A
C818        N823   1.437       .  S
C819        C820   1.404       .  A
C819        H824   1.084       .  S
C820        C825   1.491       .  S
C820        C821   1.409       .  A
C821        C822   1.404       .  A
C821        N826   1.438       .  S
C822        H827   1.083       .  S
N823        H843   1.046       .  S
N823        H844   1.046       .  S
C825        C828   1.404       .  A
C825        C832   1.411       .  A
N826        H841   1.046       .  S
N826        H842   1.045       .  S
C828        C829   1.405       .  A
C828        H833   1.084       .  S
C829        C830   1.414       .  A
C829        N834   1.438       .  S
C830        C831   1.406       .  A
C831        C832   1.410       .  A
C831        H835   1.083       .  S
C832        N836   1.437       .  S
N834        H837   1.046       .  S
N834        H838   1.045       .  S
N836        H839   1.046       .  S
N836        H840   1.046       .  S
C845        C846   1.417       .  A
C845        C850   1.407       .  A
C846        C847   1.400       .  A
C846        N851   1.439   1_556  S
C847        C848   1.401       .  A
C847        H852   1.084       .  S
C848        C853   1.488       .  S
C848        C849   1.412       .  A
C849        C850   1.410       .  A
C849        N854   1.437       .  S
C850        H855   1.084       .  S
N851        H871   1.045       .  S
N851        H872   1.046       .  S
C853        C856   1.405       .  A
C853        C860   1.412       .  A
N854        H869   1.046       .  S
N854        H870   1.046       .  S
C856        C857   1.407       .  A
C856        H861   1.083       .  S
C857        C858   1.413       .  A
C857        N862   1.438       .  S
C858        C859   1.404       .  A
C859        C860   1.400       .  A
C859        H863   1.083       .  S
C860        N864   1.438       .  S
N862        H865   1.046       .  S
N862        H866   1.045       .  S
N864        H867   1.046       .  S
N864        H868   1.046       .  S
C873        C874   1.410       .  A
C873        C878   1.404       .  A
C874        C875   1.405       .  A
C874        N879   1.438       .  S
C875        C876   1.406       .  A
C875        H880   1.083       .  S
C876        C881   1.488       .  S
C876        C877   1.412       .  A
C877        C878   1.402       .  A
C877        N882   1.437       .  S
C878        H883   1.084       .  S
N879        H899   1.046       .  S
N879        H900   1.046       .  S
C881        C884   1.402       .  A
C881        C888   1.416       .  A
N882        H897   1.046       .  S
N882        H898   1.043       .  S
C884        C885   1.397       .  A
C884        H889   1.083       .  S
C885        C886   1.408       .  A
C885        N890   1.439   1_554  S
C886        C887   1.399       .  A
C887        C888   1.408       .  A
C887        H891   1.084       .  S
C888        N892   1.437       .  S
N890        H893   1.046       .  S
N890        H894   1.045       .  S
N892        H895   1.046       .  S
N892        H896   1.044       .  S
C901        C902   1.413       .  A
C901        C906   1.402       .  A
C902        C903   1.402       .  A
C902        N907   1.438       .  S
C903        C904   1.398       .  A
C903        H908   1.084       .  S
C904        C909   1.471       .  S
C904        C905   1.409       .  A
C905        C906   1.403       .  A
C905        N910   1.439       .  S
C906        H911   1.081       .  S
N907        H927   1.044       .  S
N907        H928   1.045       .  S
C909        C912   1.400       .  A
C909        C916   1.408       .  A
N910        H925   1.046       .  S
N910        H926   1.044       .  S
C912        C913   1.403       .  A
C912        H917   1.084       .  S
C913        C914   1.411       .  A
C913        N918   1.438       .  S
C914        C915   1.402       .  A
C915        C916   1.403       .  A
C915        H919   1.084       .  S
C916        N920   1.439       .  S
N918        H921   1.046       .  S
N918        H922   1.046       .  S
N920        H923   1.046       .  S
N920        H924   1.044       .  S
C929        C930   1.411       .  A
C929        C934   1.404       .  A
C930        C931   1.404       .  A
C930        N935   1.438       .  S
C931        C932   1.402       .  A
C931        H936   1.084       .  S
C932        C937   1.477       .  S
C932        C933   1.408       .  A
C933        C934   1.402       .  A
C933        N938   1.438       .  S
C934        H939   1.083       .  S
N935        H955   1.045       .  S
N935        H956   1.046       .  S
C937        C940   1.402       .  A
C937        C944   1.407       .  A
N938        H953   1.046       .  S
N938        H954   1.045       .  S
C940        C941   1.406       .  A
C940        H945   1.084       .  S
C941        C942   1.415       .  A
C941        N946   1.438       .  S
C942        C943   1.407       .  A
C943        C944   1.402       .  A
C943        H947   1.084       .  S
C944        N948   1.438       .  S
N946        H949   1.046       .  S
N946        H950   1.046       .  S
N948        H951   1.046       .  S
N948        H952   1.046       .  S
