geometry optimzed in LAMMPS
_audit_creation_date              2020-11-30 
_audit_creation_method            'lammps2cif' 
_symmetry_space_group_name_H-M    'P1' 
_symmetry_Int_Tables_number       1 
_symmetry_cell_setting            triclinic 
loop_ 
_symmetry_equiv_pos_as_xyz 
  x,y,z 
_cell_length_a                    28.156396545067768 
_cell_length_b                    28.46339731760179 
_cell_length_c                    25.42396122127833 
_cell_angle_alpha                 90.7394104614262 
_cell_angle_beta                  88.85385642736713 
_cell_angle_gamma                 119.56060156918464 
loop_ 
_atom_site_label 
_atom_site_type_symbol 
_atom_site_fract_x 
_atom_site_fract_y 
_atom_site_fract_z 
_atom_site_charge 
C1          C  0.77138639  0.49962694  0.99826940    -0.01110
C2          C  0.72380007  0.49922082  0.51059460    -0.01120
C3          C  0.43563397  0.21812382  0.50498581    -0.01110
C4          C  0.44058505  0.17304068  0.49862236    -0.01120
C5          C  0.73786098  0.18048590  0.49478254    -0.01110
C6          C  0.78789625  0.22602941  0.99342041    -0.01120
C7          C  0.51629265  0.75606661  0.49177205    -0.01110
C8          C  0.51245713  0.70653208  0.48810191    -0.01120
C9          C  0.18243780  0.41571987  0.00235918    -0.01110
C10         C  0.22725419  0.41080476  0.49098526    -0.01120
C11         C  0.19415677  0.72023952  0.00450447    -0.01110
C12         C  0.24196431  0.76782388  0.49818433    -0.01120
O13         O  0.92375443  0.42706229  0.35566887    -0.81820
O14         O  0.04935738  0.42881962  0.20084621    -0.81840
O15         O  0.85377921  0.36970462  0.20825177    -0.81850
O16         O  0.04786823  0.43602027  0.30139865    -0.81790
O17         O  0.93170922  0.37149409  0.18918132    -0.81910
O18         O  0.03227764  0.47962657  0.36445416    -0.81830
O19         O  0.12857635  0.49499414  0.22729304    -0.81820
O20         O  0.92073257  0.37715332  0.28837944    -0.81850
C21         C  0.91113033  0.38122628  0.33626841     1.07870
C22         C  0.10180257  0.45558560  0.19589041     1.07760
C23         C  0.88021625  0.35239024  0.18068037     1.07900
C24         C  0.04992584  0.44831737  0.34957353     1.07770
O25         O  0.04075604  0.57523542  0.31839127    -0.81820
O26         O  0.94266774  0.46340832  0.13465790    -0.81890
O27         O  0.86519384  0.44003295  0.29248636    -0.81830
O28         O  0.08964769  0.56399455  0.21198864    -0.81810
O29         O  0.05003136  0.51812781  0.14261751    -0.81860
O30         O  0.92837601  0.52220338  0.30963763    -0.81830
O31         O  0.10416247  0.55221788  0.30872009    -0.81790
O32         O  0.90157086  0.47917334  0.19870218    -0.81860
Co33       Co  0.98166162  0.50067459  0.33137654     1.51530
Co34       Co  0.99352747  0.44902585  0.17548838     1.51690
Co35       Co  0.91423922  0.42873565  0.24111038     1.51570
Co36       Co  0.06478582  0.49718751  0.25254256     1.51470
O37         O  0.98921639  0.48436969  0.25322421    -1.43750
C38         C  0.08847955  0.58408124  0.32738339     1.07800
C39         C  0.91002201  0.47871727  0.15038052     1.07890
C40         C  0.87902611  0.48569834  0.31329238     1.07830
C41         C  0.08264824  0.56238808  0.16363987     1.07800
O42         O  0.49972502  0.41768389  0.14438149    -0.81820
O43         O  0.42304520  0.46513583  0.35046937    -0.81840
O44         O  0.51385572  0.36762245  0.29635793    -0.81850
O45         O  0.37988557  0.42402980  0.18070504    -0.81790
O46         O  0.45449750  0.39029786  0.32901112    -0.81910
O47         O  0.44519882  0.47159245  0.12333350    -0.81830
O48         O  0.37144456  0.42021293  0.28575780    -0.81820
O49         O  0.45310715  0.36610959  0.21215743    -0.81850
C50         C  0.46818828  0.37125403  0.16427458     1.07870
C51         C  0.37606173  0.43434549  0.33292828     1.07760
C52         C  0.47702440  0.36021132  0.32997921     1.07900
C53         C  0.39501010  0.43948866  0.13421996     1.07770
O54         O  0.52630024  0.56575129  0.17800080    -0.81820
O55         O  0.52054098  0.48158273  0.38108213    -0.81890
O56         O  0.56817002  0.43405980  0.21397392    -0.81830
O57         O  0.43850335  0.53988312  0.29049500    -0.81810
O58         O  0.52038340  0.55200324  0.30831181    -0.81860
O59         O  0.58408929  0.51469236  0.19799017    -0.81830
O60         O  0.43915482  0.54055986  0.18295080    -0.81790
O61         O  0.56617152  0.47480505  0.31243532    -0.81860
Co62       Co  0.51331164  0.49218375  0.16521745     1.51530
Co63       Co  0.49038726  0.47343583  0.31382135     1.51690
Co64       Co  0.50466306  0.42080613  0.26151611     1.51570
Co65       Co  0.41027815  0.47959423  0.23554575     1.51470
O66         O  0.47657060  0.46951893  0.23662699    -1.43750
C67         C  0.48736335  0.57375754  0.16716998     1.07800
C68         C  0.56296342  0.48267268  0.36237596     1.07890
C69         C  0.59936245  0.48010593  0.19455527     1.07830
C70         C  0.48547211  0.56778833  0.31150667     1.07800
O71         O  0.59827017  0.02662995  0.18363849    -0.81820
O72         O  0.47882844  0.92039102  0.35767195    -0.81840
O73         O  0.58259984  0.06279637  0.29136677    -0.81850
O74         O  0.45394587  0.85358957  0.19476089    -0.81790
O75         O  0.53030602  0.02756196  0.35877101    -0.81910
O76         O  0.53966286  0.91394173  0.18135463    -0.81830
O77         O  0.48451790  0.87723308  0.28973888    -0.81820
O78         O  0.57731568  0.09021452  0.19731786    -0.81850
C79         C  0.60933635  0.07500795  0.17747993     1.07870
C80         C  0.48973601  0.88617610  0.33793609     1.07760
C81         C  0.57710871  0.05774065  0.34000016     1.07900
C82         C  0.50050669  0.86640158  0.17491693     1.07770
O83         O  0.45064092  0.92042848  0.13562585    -0.81820
O84         O  0.44464941  0.03133785  0.30141946    -0.81890
O85         O  0.45934673  0.03789775  0.20027714    -0.81830
O86         O  0.37662981  0.83601403  0.27519911    -0.81810
O87         O  0.38576293  0.91405813  0.30227619    -0.81860
O88         O  0.50640321  0.02753404  0.13645629    -0.81830
O89         O  0.39268031  0.91013455  0.19890509    -0.81790
O90         O  0.51752040  0.10851526  0.27926660    -0.81860
Co91       Co  0.52309807  0.97214400  0.16512134     1.51530
Co92       Co  0.46349904  0.97301321  0.32130733     1.51690
Co93       Co  0.51773335  0.04665480  0.24965342     1.51570
Co94       Co  0.43973784  0.89776180  0.24811826     1.51470
O95         O  0.50073188  0.97177051  0.24299991    -1.43750
C96         C  0.40193824  0.90388305  0.15121614     1.07800
C97         C  0.47457928  0.08293678  0.30776907     1.07890
C98         C  0.47461262  0.04445903  0.15257360     1.07830
C99         C  0.36281589  0.86217025  0.30709276     1.07800
C100        C  0.30250544  0.86163259  0.38122962    -0.15030
C101        C  0.32287161  0.83413603  0.35005037     0.07120
C102        C  0.31153375  0.78232404  0.36521203    -0.15030
C103        C  0.28344396  0.75990405  0.41221266    -0.15030
C104        C  0.26423267  0.78787577  0.44410687     0.07120
C105        C  0.27327567  0.83856570  0.42782772    -0.15030
H106        H  0.31116742  0.90189615  0.37079615     0.11110
H107        H  0.32758518  0.76060214  0.34262792     0.11110
H108        H  0.27958496  0.72212202  0.42517645     0.11110
H109        H  0.25978452  0.86122764  0.45241359     0.11110
C110        C  0.30217341  0.85173553  0.12348235    -0.15030
C111        C  0.35794166  0.86908807  0.11446196     0.07120
C112        C  0.37302659  0.84917803  0.07012456    -0.15030
C113        C  0.33440045  0.81395858  0.03540206    -0.15030
C114        C  0.27911664  0.79838046  0.04232378     0.07120
C115        C  0.26287087  0.81694966  0.08710589    -0.15030
H116        H  0.28924923  0.86560937  0.15785143     0.11110
H117        H  0.41516780  0.86011782  0.06218319     0.11110
H118        H  0.34832160  0.79966386  0.00206082     0.11110
H119        H  0.22041433  0.80569369  0.09318896     0.11110
C120        C  0.17621989  0.64372847  0.44522756    -0.15030
C121        C  0.16765901  0.68711992  0.45743905     0.07120
C122        C  0.13602245  0.69935622  0.42441816    -0.15030
C123        C  0.11192752  0.66729801  0.38009842    -0.15030
C124        C  0.12078491  0.62391328  0.36770854     0.07120
C125        C  0.15405619  0.61316300  0.40007516    -0.15030
H126        H  0.20080011  0.63409719  0.47043345     0.11110
H127        H  0.12930473  0.73290831  0.43355718     0.11110
H128        H  0.08566570  0.67569370  0.35608230     0.11110
H129        H  0.16071562  0.57938910  0.39197179     0.11110
C130        C  0.08478270  0.62840257  0.09936743    -0.15030
C131        C  0.11318166  0.61110736  0.13109637     0.07120
C132        C  0.17048139  0.63727380  0.12740435    -0.15030
C133        C  0.19861506  0.67735901  0.08928948    -0.15030
C134        C  0.16975070  0.69264157  0.05540906     0.07120
C135        C  0.11286256  0.66927429  0.06246807    -0.15030
H136        H  0.04062234  0.60873553  0.10168666     0.11110
H137        H  0.19298898  0.62395324  0.15131832     0.11110
H138        H  0.24209106  0.69323523  0.08367347     0.11110
H139        H  0.08956902  0.67976494  0.03641873     0.11110
C140        C  0.25608146  0.36550782  0.42501424    -0.15030
C141        C  0.24652887  0.40847356  0.43728798     0.07120
C142        C  0.27317767  0.45626611  0.40807755    -0.15030
C143        C  0.31386350  0.46336290  0.37174274    -0.15030
C144        C  0.32759611  0.42265501  0.36409114     0.07120
C145        C  0.29665226  0.37259760  0.38844839    -0.15030
H146        H  0.23633963  0.32868519  0.44788696     0.11110
H147        H  0.26702773  0.49010015  0.41768705     0.11110
H148        H  0.33659058  0.50157701  0.35167317     0.11110
H149        H  0.30650131  0.34064330  0.38209887     0.11110
C150        C  0.25876759  0.37682999  0.06619843    -0.15030
C151        C  0.26776138  0.41831899  0.03140696     0.07120
C152        C  0.31931028  0.46504081  0.02911515    -0.15030
C153        C  0.36156192  0.47001150  0.06027797    -0.15030
C154        C  0.35283511  0.42892523  0.09542803     0.07120
C155        C  0.30095659  0.38243697  0.09862354    -0.15030
H156        H  0.21958311  0.34011582  0.06765404     0.11110
H157        H  0.32711451  0.49754570  0.00248036     0.11110
H158        H  0.40059848  0.50687223  0.05813363     0.11110
H159        H  0.29316784  0.35065849  0.12622017     0.11110
C160        C  0.13080780  0.38979793  0.41488683    -0.15030
C161        C  0.14786083  0.42133652  0.46125133     0.07120
C162        C  0.13010622  0.45901270  0.47040890    -0.15030
C163        C  0.09661864  0.46519671  0.43509515    -0.15030
C164        C  0.08054833  0.43505242  0.38818423     0.07120
C165        C  0.09812424  0.39724158  0.37822219    -0.15030
H166        H  0.14225918  0.35923979  0.40707534     0.11110
H167        H  0.14247646  0.48447588  0.50512457     0.11110
H168        H  0.08468166  0.49524262  0.44416566     0.11110
H169        H  0.08658725  0.37352685  0.34235484     0.11110
C170        C  0.09767312  0.39213491  0.12561590    -0.15030
C171        C  0.12854863  0.44059763  0.15353025     0.07120
C172        C  0.18121731  0.47762154  0.13503022    -0.15030
C173        C  0.20089320  0.46798027  0.08739685    -0.15030
C174        C  0.16827244  0.42100213  0.05802995     0.07120
C175        C  0.11730256  0.38257289  0.07826273    -0.15030
H176        H  0.05689267  0.36285663  0.13881086     0.11110
H177        H  0.20550872  0.51560356  0.15532225     0.11110
H178        H  0.23986114  0.49873958  0.07174775     0.11110
H179        H  0.09143627  0.34646938  0.05586619     0.11110
C180        C  0.55353851  0.67963966  0.41295499    -0.15030
C181        C  0.50776754  0.67859698  0.43709804     0.07120
C182        C  0.45600127  0.64493628  0.41625425    -0.15030
C183        C  0.44996263  0.61373361  0.37147196    -0.15030
C184        C  0.49504981  0.61218620  0.34870710     0.07120
C185        C  0.54720268  0.64625305  0.36941587    -0.15030
H186        H  0.59369504  0.70425732  0.42935265     0.11110
H187        H  0.41980625  0.64122138  0.43582427     0.11110
H188        H  0.40926361  0.58778526  0.35714250     0.11110
H189        H  0.58268158  0.64537256  0.35339139     0.11110
C190        C  0.55293267  0.67620052  0.05784574    -0.15030
C191        C  0.50717553  0.67555719  0.03643288     0.07120
C192        C  0.45613088  0.64604344  0.06152049    -0.15030
C193        C  0.45054834  0.61637824  0.10681095    -0.15030
C194        C  0.49582081  0.61487938  0.12733853     0.07120
C195        C  0.54734161  0.64603954  0.10292274    -0.15030
H196        H  0.59268896  0.69921351  0.03908250     0.11110
H197        H  0.42042144  0.64526335  0.04543765     0.11110
H198        H  0.41020563  0.59243689  0.12413957     0.11110
H199        H  0.58293255  0.64537830  0.11734570     0.11110
C200        C  0.54824584  0.87412908  0.40305748    -0.15030
C201        C  0.50173011  0.85223466  0.37174869     0.07120
C202        C  0.46249514  0.79761639  0.37670111    -0.15030
C203        C  0.46822748  0.76567093  0.41430318    -0.15030
C204        C  0.51481981  0.78687983  0.44565599     0.07120
C205        C  0.55509270  0.84138679  0.43933370    -0.15030
H206        H  0.57847045  0.91654819  0.40018723     0.11110
H207        H  0.42557782  0.78061929  0.35382623     0.11110
H208        H  0.43442761  0.72567738  0.42110955     0.11110
H209        H  0.59063391  0.85919447  0.46411254     0.11110
C210        C  0.46214916  0.76552013  0.06511147    -0.15030
C211        C  0.51338568  0.77846524  0.04385569     0.07120
C212        C  0.56081432  0.81524470  0.07014393    -0.15030
C213        C  0.55696746  0.84150324  0.11562727    -0.15030
C214        C  0.50556437  0.83034833  0.13573359     0.07870
C215        C  0.45820649  0.79051186  0.11114146    -0.15030
H216        H  0.42521739  0.73743857  0.04494228     0.11110
H217        H  0.60064570  0.82539242  0.05411284     0.11110
H218        H  0.59406298  0.87224699  0.13360819     0.11110
H219        H  0.41801324  0.78144542  0.12519805     0.11110
C220        C  0.81154760  0.31743932  0.11029844    -0.15030
C221        C  0.85355457  0.31485847  0.13659771     0.07120
C222        C  0.87403093  0.28221560  0.11582493    -0.15030
C223        C  0.85234441  0.25231015  0.06960686    -0.15030
C224        C  0.81129164  0.25621482  0.04296073     0.07120
C225        C  0.79150886  0.28934394  0.06338408    -0.15030
H226        H  0.79605551  0.34341466  0.12457964     0.11110
H227        H  0.90704114  0.28032074  0.13499659     0.11110
H228        H  0.86802769  0.22688755  0.05426169     0.11110
H229        H  0.76054377  0.29355632  0.04273103     0.11110
C230        C  0.86972627  0.26862661  0.43371344    -0.15030
C231        C  0.81514867  0.25491568  0.44428271     0.07120
C232        C  0.79140060  0.27889642  0.41457181    -0.15030
C233        C  0.82227555  0.31749391  0.37657460    -0.15030
C234        C  0.87738680  0.33295766  0.36787235     0.07120
C235        C  0.90074170  0.30745865  0.39562284    -0.15030
H236        H  0.88919153  0.25151399  0.45700341     0.11110
H237        H  0.75036159  0.27093395  0.42344126     0.11110
H238        H  0.80405108  0.33765815  0.35607089     0.11110
H239        H  0.94355138  0.31977788  0.39001002     0.11110
C240        C  0.66147800  0.16593814  0.43748720    -0.15030
C241        C  0.70411581  0.15539885  0.44762824     0.07120
C242        C  0.70657931  0.11356513  0.41990860    -0.15030
C243        C  0.66622647  0.08222428  0.38315745    -0.15030
C244        C  0.62260149  0.09186754  0.37486683     0.07120
C245        C  0.62107255  0.13435553  0.40170656    -0.15030
H246        H  0.65811157  0.19724773  0.45903337     0.11110
H247        H  0.73825100  0.10379535  0.42834745     0.11110
H248        H  0.66781714  0.04931276  0.36290385     0.11110
H249        H  0.58773381  0.14227343  0.39588019     0.11110
C250        C  0.71524170  0.11607513  0.06898835    -0.15030
C251        C  0.71052308  0.15788665  0.04582135     0.07120
C252        C  0.67822134  0.17693365  0.07031097    -0.15030
C253        C  0.64940115  0.15322595  0.11656409    -0.15030
C254        C  0.65121269  0.10901582  0.13829115     0.07120
C255        C  0.68560380  0.09159648  0.11490960    -0.15030
H256        H  0.74024771  0.10118889  0.05046294     0.11110
H257        H  0.67411077  0.20919946  0.05287131     0.11110
H258        H  0.62281216  0.16716974  0.13320126     0.11110
H259        H  0.68744968  0.05734578  0.13058145     0.11110
C260        C  0.39994042  0.25065280  0.43150233    -0.15030
C261        C  0.44386550  0.25343326  0.45927529     0.07120
C262        C  0.49740429  0.29153926  0.44454335    -0.15030
C263        C  0.50735327  0.32357279  0.40045596    -0.15030
C264        C  0.46388399  0.32111565  0.37246522     0.07120
C265        C  0.40994447  0.28533014  0.38876691    -0.15030
H266        H  0.35833531  0.22229364  0.44323617     0.11110
H267        H  0.53172558  0.29573774  0.46674955     0.11110
H268        H  0.54921223  0.35194471  0.38936316     0.11110
H269        H  0.37593009  0.28387609  0.36820058     0.11110
C270        C  0.40341649  0.29032086  0.11241103    -0.15030
C271        C  0.45569245  0.32326516  0.13247902     0.07120
C272        C  0.49854399  0.31405142  0.11712526    -0.15030
C273        C  0.49010322  0.27435080  0.07984622    -0.15030
C274        C  0.43889688  0.24408272  0.05660244     0.07120
C275        C  0.39521696  0.25124722  0.07414512    -0.15030
H276        H  0.37011391  0.29738867  0.12350552     0.11110
H277        H  0.53921305  0.33943816  0.13211554     0.11110
H278        H  0.52460357  0.27046740  0.06584648     0.11110
H279        H  0.35583549  0.22925310  0.05556442     0.11110
C280        C  0.49448684  0.18191764  0.41571910    -0.15030
C281        C  0.44551726  0.15415336  0.44483481     0.07120
C282        C  0.40378856  0.10496131  0.42556045    -0.15030
C283        C  0.41156374  0.08318023  0.37862859    -0.15030
C284        C  0.46108070  0.11065241  0.35004995     0.07120
C285        C  0.50160047  0.16117657  0.36812352    -0.15030
H286        H  0.52861349  0.21805758  0.43122938     0.11110
H287        H  0.36620246  0.08239083  0.44801440     0.11110
H288        H  0.37983540  0.04378337  0.36597508     0.11110
H289        H  0.54056401  0.18277560  0.34763258     0.11110
C290        C  0.41240359  0.12095994  0.08526440    -0.15030
C291        C  0.44972186  0.14468843  0.04301006     0.07120
C292        C  0.49512338  0.13694216  0.03943629    -0.15030
C293        C  0.50199528  0.10436263  0.07507294    -0.15030
C294        C  0.46424359  0.07890451  0.11640417     0.07120
C295        C  0.41991527  0.08855345  0.12214388    -0.15030
H296        H  0.37686372  0.12612012  0.08874411     0.11110
H297        H  0.52517974  0.15532148  0.00809727     0.11110
H298        H  0.53741388  0.09916364  0.07000482     0.11110
H299        H  0.39056314  0.07000830  0.15401837     0.11110
C300        C  0.62829514  0.46006059  0.47888536    -0.15030
C301        C  0.68425677  0.49557175  0.46993957     0.07120
C302        C  0.70037190  0.52823526  0.42455019    -0.15030
C303        C  0.66139565  0.52373093  0.38823323    -0.15030
C304        C  0.60573751  0.48885544  0.39845442     0.07120
C305        C  0.58961491  0.45758710  0.44421511    -0.15030
H306        H  0.61411805  0.43415316  0.51309342     0.11110
H307        H  0.74273614  0.55778317  0.41745382     0.11110
H308        H  0.67444613  0.54850188  0.35320213     0.11110
H309        H  0.54679296  0.43013904  0.45263204     0.11110
C310        C  0.70145056  0.54293766  0.08451437    -0.15030
C311        C  0.70590801  0.49872962  0.06604228     0.07120
C312        C  0.68424420  0.45156406  0.09646731    -0.15030
C313        C  0.65375846  0.44701657  0.14229795    -0.15030
C314        C  0.64486977  0.48967020  0.15807892     0.07120
C315        C  0.67182731  0.53874450  0.13045240    -0.15030
H316        H  0.71788535  0.57953236  0.06139912     0.11110
H317        H  0.68703982  0.41691015  0.08242888     0.11110
H318        H  0.63362727  0.40879153  0.16283483     0.11110
H319        H  0.66611617  0.57248908  0.14165278     0.11110
C320        C  0.82393605  0.52926196  0.08427657    -0.15030
C321        C  0.80737881  0.49628440  0.03891813     0.07120
C322        C  0.82728297  0.46021020  0.03034159    -0.15030
C323        C  0.86233170  0.45680584  0.06580261    -0.15030
C324        C  0.87732774  0.48815698  0.11182234     0.07120
C325        C  0.85758422  0.52420500  0.12118914    -0.15030
H326        H  0.81121766  0.55902454  0.09113188     0.11110
H327        H  0.81545414  0.43405025  0.99614557     0.11110
H328        H  0.87628097  0.42803846  0.05799688     0.11110
H329        H  0.86873245  0.54879007  0.15650773     0.11110
C330        C  0.76531954  0.45253389  0.41222629    -0.15030
C331        C  0.78919939  0.49981130  0.44289189     0.07120
C332        C  0.83664805  0.54516474  0.42458145    -0.15030
C333        C  0.86248844  0.54224031  0.37836633    -0.15030
C334        C  0.84214837  0.49331080  0.35036086     0.07120
C335        C  0.79180199  0.44921423  0.36621447    -0.15030
H336        H  0.72884221  0.41701450  0.42618285     0.11110
H337        H  0.85552754  0.58186007  0.44790030     0.11110
H338        H  0.90098635  0.57704219  0.36716501     0.11110
H339        H  0.77516404  0.41097923  0.34554018     0.11110
C340        C  0.77138872  0.49968530  0.49826413    -0.01110
C341        C  0.72379657  0.49916840  0.01059032    -0.01120
C342        C  0.43558334  0.21814089  0.00498676    -0.01110
C343        C  0.44053983  0.17306361  0.99862084    -0.01120
C344        C  0.73792114  0.18066592  0.99474603    -0.01110
C345        C  0.78780154  0.22589001  0.49346833    -0.01120
C346        C  0.51642875  0.75609731  0.99179454    -0.01110
C347        C  0.51251261  0.70652880  0.98809098    -0.01120
C348        C  0.18244771  0.41568801  0.50237123    -0.01110
C349        C  0.22725779  0.41085407  0.99098324    -0.01120
C350        C  0.19421672  0.72032810  0.50444555    -0.01110
C351        C  0.24197197  0.76768774  0.99845100    -0.01120
O352        O  0.92385038  0.42712603  0.85558884    -0.81820
O353        O  0.04942621  0.42893802  0.70077516    -0.81840
O354        O  0.85386624  0.36983901  0.70813789    -0.81850
O355        O  0.04793255  0.43612383  0.80133744    -0.81790
O356        O  0.93179321  0.37163170  0.68903981    -0.81910
O357        O  0.03236499  0.47974336  0.86439215    -0.81830
O358        O  0.12864675  0.49509921  0.72724474    -0.81820
O359        O  0.92080588  0.37724809  0.78825709    -0.81850
C360        C  0.91123180  0.38130141  0.83615926     1.07870
C361        C  0.10187411  0.45568603  0.69584650     1.07760
C362        C  0.88029312  0.35251650  0.68056284     1.07900
C363        C  0.04999940  0.44842393  0.84951278     1.07770
O364        O  0.04081084  0.57534510  0.81835920    -0.81820
O365        O  0.94278099  0.46359716  0.63459093    -0.81890
O366        O  0.86525793  0.44009745  0.79242588    -0.81830
O367        O  0.08974760  0.56412123  0.71194578    -0.81810
O368        O  0.05016692  0.51828993  0.64255231    -0.81860
O369        O  0.92841578  0.52226854  0.80960674    -0.81830
O370        O  0.10422166  0.55233061  0.80865104    -0.81790
O371        O  0.90164899  0.47930521  0.69864771    -0.81860
Co372      Co  0.98172972  0.50076555  0.83132136     1.51530
Co373      Co  0.99362531  0.44918020  0.67540827     1.51690
Co374      Co  0.91431770  0.42885357  0.74102347     1.51570
Co375      Co  0.06485705  0.49729714  0.75248145     1.51470
O376        O  0.98929379  0.48448980  0.75315894    -1.43750
C377        C  0.08854589  0.58419959  0.82731586     1.07800
C378        C  0.91011135  0.47887279  0.65032573     1.07890
C379        C  0.87907301  0.48574530  0.81326292     1.07830
C380        C  0.08279556  0.56253661  0.66359172     1.07800
O381        O  0.49974651  0.41769274  0.64437207    -0.81820
O382        O  0.42306327  0.46515518  0.85046613    -0.81840
O383        O  0.51385422  0.36761852  0.79634720    -0.81850
O384        O  0.37989069  0.42402918  0.68070600    -0.81790
O385        O  0.45450380  0.39030753  0.82900025    -0.81910
O386        O  0.44520490  0.47158785  0.62333103    -0.81830
O387        O  0.37145315  0.42022460  0.78576331    -0.81820
O388        O  0.45311776  0.36610995  0.71213761    -0.81850
C389        C  0.46821161  0.37125868  0.66425797     1.07870
C390        C  0.37607621  0.43436669  0.83293170     1.07760
C391        C  0.47702339  0.36021458  0.82996722     1.07900
C392        C  0.39501716  0.43948235  0.63421956     1.07770
O393        O  0.52629665  0.56575233  0.67799502    -0.81820
O394        O  0.52055705  0.48159172  0.88107331    -0.81890
O395        O  0.56818257  0.43407142  0.71397010    -0.81830
O396        O  0.43851868  0.53989516  0.79048154    -0.81810
O397        O  0.52039844  0.55201033  0.80829566    -0.81860
O398        O  0.58409292  0.51470335  0.69799466    -0.81830
O399        O  0.43915118  0.54055902  0.68293834    -0.81790
O400        O  0.56617751  0.47479905  0.81242777    -0.81860
Co401      Co  0.51331848  0.49218813  0.66521336     1.51530
Co402      Co  0.49039888  0.47344408  0.81381196     1.51690
Co403      Co  0.50466752  0.42080491  0.76150521     1.51570
Co404      Co  0.41028412  0.47959863  0.73554075     1.51470
O405        O  0.47657597  0.46952082  0.73662007    -1.43750
C406        C  0.48736041  0.57375958  0.66716278     1.07800
C407        C  0.56297382  0.48266923  0.86236825     1.07890
C408        C  0.59937369  0.48012270  0.69456052     1.07830
C409        C  0.48549108  0.56780104  0.81148636     1.07800
O410        O  0.59827097  0.02653650  0.68376620    -0.81820
O411        O  0.47888925  0.92042926  0.85774328    -0.81840
O412        O  0.58260847  0.06268184  0.79144665    -0.81850
O413        O  0.45376512  0.85353578  0.69479853    -0.81790
O414        O  0.53030139  0.02761167  0.85886262    -0.81910
O415        O  0.53952135  0.91381992  0.68145067    -0.81830
O416        O  0.48434887  0.87712778  0.78980934    -0.81820
O417        O  0.57736809  0.09015958  0.69743679    -0.81850
C418        C  0.60936476  0.07492344  0.67759675     1.07870
C419        C  0.48968903  0.88614357  0.83799446     1.07760
C420        C  0.57711509  0.05772184  0.84008440     1.07900
C421        C  0.50031349  0.86631758  0.67494488     1.07770
O422        O  0.45061523  0.92050289  0.63572778    -0.81820
O423        O  0.44465506  0.03134543  0.80150371    -0.81890
O424        O  0.45940205  0.03794104  0.70035594    -0.81830
O425        O  0.37647999  0.83597074  0.77528923    -0.81810
O426        O  0.38580002  0.91407329  0.80236825    -0.81860
O427        O  0.50647039  0.02756132  0.63655869    -0.81830
O428        O  0.39255489  0.91009087  0.69895118    -0.81790
O429        O  0.51758477  0.10849464  0.77937650    -0.81860
Co430      Co  0.52307792  0.97211015  0.66523216     1.51530
Co431      Co  0.46350789  0.97302991  0.82141025     1.51690
Co432      Co  0.51775308  0.04662010  0.74974486     1.51570
Co433      Co  0.43960556  0.89770692  0.74818101     1.51470
O434        O  0.50066855  0.97172012  0.74308804    -1.43750
C435        C  0.40189783  0.90401294  0.65123417     1.07800
C436        C  0.47460690  0.08294465  0.80783885     1.07890
C437        C  0.47468169  0.04449732  0.65265514     1.07830
C438        C  0.36286202  0.86220088  0.80729152     1.07800
C439        C  0.30301095  0.86185422  0.88179639    -0.15030
C440        C  0.32315440  0.83426975  0.85045026     0.07120
C441        C  0.31173779  0.78241108  0.86553003    -0.15030
C442        C  0.28367981  0.75996896  0.91253941    -0.15030
C443        C  0.26456580  0.78796178  0.94452372     0.07120
C444        C  0.27380852  0.83876510  0.92840198    -0.15030
H445        H  0.31175771  0.90216324  0.87144250     0.11110
H446        H  0.32763058  0.76062301  0.84282344     0.11110
H447        H  0.27967843  0.72209496  0.92538876     0.11110
H448        H  0.26040567  0.86144810  0.95306627     0.11110
C449        C  0.30204098  0.85107070  0.62382230    -0.15030
C450        C  0.35796803  0.86959640  0.61422919     0.07120
C451        C  0.37332920  0.85102766  0.56908434    -0.15030
C452        C  0.33481094  0.81581354  0.53429016    -0.15030
C453        C  0.27927356  0.79889787  0.54189427     0.07120
C454        C  0.26280339  0.81630753  0.58737158    -0.15030
H455        H  0.28890342  0.86389067  0.65879156     0.11110
H456        H  0.41561737  0.86288691  0.56060417     0.11110
H457        H  0.34902518  0.80246725  0.50044637     0.11110
H458        H  0.22018002  0.80408898  0.59403093     0.11110
C459        C  0.17625664  0.64376822  0.94516785    -0.15030
C460        C  0.16774082  0.68718512  0.95738361     0.07120
C461        C  0.13618684  0.69950295  0.92433232    -0.15030
C462        C  0.11209194  0.66746878  0.87999540    -0.15030
C463        C  0.12088289  0.62403920  0.86762053     0.07120
C464        C  0.15410854  0.61323760  0.89999836    -0.15030
H465        H  0.20076358  0.63406809  0.97040462     0.11110
H466        H  0.12949597  0.73306959  0.93348212     0.11110
H467        H  0.08586679  0.67590443  0.85596669     0.11110
H468        H  0.16071907  0.57943166  0.89190552     0.11110
C469        C  0.08503722  0.62882355  0.59959395    -0.15030
C470        C  0.11339013  0.61127024  0.63107257     0.07120
C471        C  0.17067187  0.63720811  0.62716016    -0.15030
C472        C  0.19880378  0.67732274  0.58906505    -0.15030
C473        C  0.16996070  0.69284365  0.55542050     0.07120
C474        C  0.11312283  0.66971099  0.56270792    -0.15030
H475        H  0.04089439  0.60933622  0.60208335     0.11110
H476        H  0.19314217  0.62369355  0.65088451     0.11110
H477        H  0.24223686  0.69304562  0.58326122     0.11110
H478        H  0.08984670  0.68038015  0.53682187     0.11110
C479        C  0.25608043  0.36555273  0.92500979    -0.15030
C480        C  0.24654636  0.40852933  0.93728896     0.07120
C481        C  0.27321838  0.45632738  0.90808893    -0.15030
C482        C  0.31390566  0.46341523  0.87175902    -0.15030
C483        C  0.32761503  0.42269190  0.86409786     0.07120
C484        C  0.29664981  0.37263212  0.88844561    -0.15030
H485        H  0.23632137  0.32872551  0.94787472     0.11110
H486        H  0.26708316  0.49016954  0.91770269     0.11110
H487        H  0.33664957  0.50163236  0.85169847     0.11110
H488        H  0.30648032  0.34066594  0.88208976     0.11110
C489        C  0.25878408  0.37678877  0.56618720    -0.15030
C490        C  0.26776597  0.41827694  0.53140043     0.07120
C491        C  0.31930470  0.46501123  0.52911343    -0.15030
C492        C  0.36155840  0.46999830  0.56028308    -0.15030
C493        C  0.35284395  0.42890991  0.59542561     0.07120
C494        C  0.30097608  0.38240791  0.59861327    -0.15030
H495        H  0.21960620  0.34006674  0.56763910     0.11110
H496        H  0.32709688  0.49751470  0.50248139     0.11110
H497        H  0.40058454  0.50687330  0.55815239     0.11110
H498        H  0.29319751  0.35062931  0.62620597     0.11110
C499        C  0.13084832  0.38987307  0.91484236    -0.15030
C500        C  0.14786756  0.42138218  0.96122773     0.07120
C501        C  0.13010015  0.45904755  0.97039139    -0.15030
C502        C  0.09663713  0.46525244  0.93506264    -0.15030
C503        C  0.08060333  0.43514018  0.88813054     0.07120
C504        C  0.09818895  0.39733756  0.87816396    -0.15030
H505        H  0.14230726  0.35932156  0.90702421     0.11110
H506        H  0.14244324  0.48448786  0.00512322     0.11110
H507        H  0.08469007  0.49528962  0.94414049     0.11110
H508        H  0.08667855  0.37364537  0.84228236     0.11110
C509        C  0.09774856  0.39216837  0.62565436    -0.15030
C510        C  0.12862279  0.44066163  0.65352347     0.07120
C511        C  0.18128056  0.47768047  0.63499639    -0.15030
C512        C  0.20094110  0.46800598  0.58737119    -0.15030
C513        C  0.16831435  0.42100089  0.55804237     0.07120
C514        C  0.11736208  0.38257401  0.57830904    -0.15030
H515        H  0.05697680  0.36289273  0.63887376     0.11110
H516        H  0.20556891  0.51568452  0.65525430     0.11110
H517        H  0.23989624  0.49876109  0.57169390     0.11110
H518        H  0.09149339  0.34644907  0.55594136     0.11110
C519        C  0.55357446  0.67963909  0.91293569    -0.15030
C520        C  0.50781027  0.67861650  0.93707131     0.07120
C521        C  0.45604490  0.64498629  0.91621070    -0.15030
C522        C  0.45000170  0.61378519  0.87142553    -0.15030
C523        C  0.49508032  0.61221025  0.84867511     0.07120
C524        C  0.54723279  0.64625615  0.86939349    -0.15030
H525        H  0.59372894  0.70423281  0.92934650     0.11110
H526        H  0.41985197  0.64128052  0.93577531     0.11110
H527        H  0.40930326  0.58785532  0.85708539     0.11110
H528        H  0.58270515  0.64535636  0.85337879     0.11110
C529        C  0.55288091  0.67610552  0.55775826    -0.15030
C530        C  0.50714231  0.67559424  0.53646351     0.07120
C531        C  0.45614176  0.64621854  0.56166793    -0.15030
C532        C  0.45057555  0.61652632  0.60693670    -0.15030
C533        C  0.49582513  0.61489741  0.62734554     0.07120
C534        C  0.54731090  0.64594647  0.60282918    -0.15030
H535        H  0.59260514  0.69901456  0.53890789     0.11110
H536        H  0.42044974  0.64555210  0.54568166     0.11110
H537        H  0.41025885  0.59267418  0.62434787     0.11110
H538        H  0.58288287  0.64518696  0.61715957     0.11110
C539        C  0.54830755  0.87410345  0.90299895    -0.15030
C540        C  0.50171337  0.85221340  0.87179748     0.07120
C541        C  0.46244318  0.79761853  0.87685238    -0.15030
C542        C  0.46822048  0.76569951  0.91445310    -0.15030
C543        C  0.51489055  0.78690115  0.94569677     0.07120
C544        C  0.55519804  0.84138087  0.93926807    -0.15030
H545        H  0.57856626  0.91650485  0.90004714     0.11110
H546        H  0.42547347  0.78062377  0.85405862     0.11110
H547        H  0.43440667  0.72573156  0.92134263     0.11110
H548        H  0.59081297  0.85918707  0.96394686     0.11110
C549        C  0.46191363  0.76582196  0.56476635    -0.15030
C550        C  0.51316339  0.77842802  0.54380516     0.07120
C551        C  0.56055287  0.81489366  0.57034100    -0.15030
C552        C  0.55668293  0.84114917  0.61581896    -0.15030
C553        C  0.50528819  0.83030527  0.63566023     0.07870
C554        C  0.45793383  0.79083717  0.61076154    -0.15030
H555        H  0.42502050  0.73798455  0.54439789     0.11110
H556        H  0.60039082  0.82480074  0.55451049     0.11110
H557        H  0.59377274  0.87163473  0.63402393     0.11110
H558        H  0.41775649  0.78206900  0.62457536     0.11110
C559        C  0.81144527  0.31732681  0.61033277    -0.15030
C560        C  0.85359126  0.31490919  0.63653505     0.07120
C561        C  0.87414420  0.28234840  0.61571127    -0.15030
C562        C  0.85240520  0.25237164  0.56953914    -0.15030
C563        C  0.81119853  0.25609970  0.54299786     0.07120
C564        C  0.79133567  0.28914565  0.56347013    -0.15030
H565        H  0.79589232  0.34324209  0.62464366     0.11110
H566        H  0.90726262  0.28058122  0.63480014     0.11110
H567        H  0.86817108  0.22703626  0.55414290     0.11110
H568        H  0.76027116  0.29324785  0.54288286     0.11110
C569        C  0.87001712  0.26902771  0.93393197    -0.15030
C570        C  0.81531576  0.25502952  0.94423392     0.07120
C571        C  0.79145339  0.27869147  0.91421586    -0.15030
C572        C  0.82232352  0.31725610  0.87618358    -0.15030
C573        C  0.87754438  0.33301591  0.86776282     0.07120
C574        C  0.90102935  0.30784110  0.89582979    -0.15030
H575        H  0.88956834  0.25215991  0.95743787     0.11110
H576        H  0.75030688  0.27051997  0.92286234     0.11110
H577        H  0.80399593  0.33718536  0.85544429     0.11110
H578        H  0.94391799  0.32039520  0.89043933     0.11110
C579        C  0.66129647  0.16584741  0.93769066    -0.15030
C580        C  0.70414828  0.15556645  0.94761091     0.07120
C581        C  0.70682665  0.11394970  0.91968583    -0.15030
C582        C  0.66646088  0.08255142  0.88296434    -0.15030
C583        C  0.62260496  0.09190368  0.87493009     0.07120
C584        C  0.62086903  0.13418846  0.90196624    -0.15030
H585        H  0.65779375  0.19701696  0.95935956     0.11110
H586        H  0.73867892  0.10438383  0.92794164     0.11110
H587        H  0.66822295  0.04980830  0.86254275     0.11110
H588        H  0.58736582  0.14189822  0.89632150     0.11110
C589        C  0.71524981  0.11595897  0.56907861    -0.15030
C590        C  0.71045226  0.15769896  0.54584756     0.07120
C591        C  0.67808467  0.17669609  0.57028158    -0.15030
C592        C  0.64930972  0.15303629  0.61656532    -0.15030
C593        C  0.65120641  0.10889932  0.63836693     0.07120
C594        C  0.68563454  0.09150770  0.61502067    -0.15030
H595        H  0.74030366  0.10110866  0.55059152     0.11110
H596        H  0.67389941  0.20889346  0.55278134     0.11110
H597        H  0.62268431  0.16695198  0.63316821     0.11110
H598        H  0.68753730  0.05730695  0.63074599     0.11110
C599        C  0.39991189  0.25066990  0.93148839    -0.15030
C600        C  0.44382863  0.25345553  0.95927970     0.07120
C601        C  0.49737234  0.29155528  0.94455653    -0.15030
C602        C  0.50733454  0.32358037  0.90046056    -0.15030
C603        C  0.46387318  0.32112009  0.87245345     0.07120
C604        C  0.40992901  0.28533985  0.88874491    -0.15030
H605        H  0.35830350  0.22231149  0.94321316     0.11110
H606        H  0.53168635  0.29575305  0.96677514     0.11110
H607        H  0.54919649  0.35194832  0.88937365     0.11110
H608        H  0.37592123  0.28388463  0.86816466     0.11110
C609        C  0.40345240  0.29028542  0.61242404    -0.15030
C610        C  0.45573513  0.32327260  0.63246035     0.07120
C611        C  0.49860487  0.31409567  0.61708167    -0.15030
C612        C  0.49017251  0.27438822  0.57981261    -0.15030
C613        C  0.43895602  0.24407655  0.55659919     0.07120
C614        C  0.39526116  0.25120694  0.57416473    -0.15030
H615        H  0.37013390  0.29732174  0.62353777     0.11110
H616        H  0.53927865  0.33951262  0.63204779     0.11110
H617        H  0.52468297  0.27053055  0.56579684     0.11110
H618        H  0.35586996  0.22917962  0.55560760     0.11110
C619        C  0.49448471  0.18194305  0.91575247    -0.15030
C620        C  0.44549288  0.15419028  0.94483683     0.07120
C621        C  0.40375644  0.10501853  0.92553748    -0.15030
C622        C  0.41154865  0.08323693  0.87861616    -0.15030
C623        C  0.46109313  0.11068670  0.85007718     0.07120
C624        C  0.50162064  0.16119786  0.86816982    -0.15030
H625        H  0.52861029  0.21807213  0.93128203     0.11110
H626        H  0.36615131  0.08246061  0.94796710     0.11110
H627        H  0.37981333  0.04385068  0.86594616     0.11110
H628        H  0.54060691  0.18277464  0.84771325     0.11110
C629        C  0.41250470  0.12102390  0.58532458    -0.15030
C630        C  0.44976992  0.14466531  0.54301496     0.07120
C631        C  0.49512385  0.13684369  0.53940309    -0.15030
C632        C  0.50200140  0.10428396  0.57506160    -0.15030
C633        C  0.46430584  0.07892056  0.61645602     0.07120
C634        C  0.42002351  0.08863772  0.62222483    -0.15030
H635        H  0.37699966  0.12623860  0.58883676     0.11110
H636        H  0.52514125  0.15515291  0.50802108     0.11110
H637        H  0.53738204  0.09902765  0.56996032     0.11110
H638        H  0.39071259  0.07016481  0.65414372     0.11110
C639        C  0.62829367  0.46003172  0.97887616    -0.15030
C640        C  0.68425941  0.49552652  0.96992841     0.07120
C641        C  0.70038096  0.52818771  0.92453681    -0.15030
C642        C  0.66140758  0.52369716  0.88822176    -0.15030
C643        C  0.60574577  0.48883999  0.89844680     0.07120
C644        C  0.58961744  0.45757459  0.94420943    -0.15030
H645        H  0.61410947  0.43412603  0.01308523     0.11110
H646        H  0.74274742  0.55772635  0.91743807     0.11110
H647        H  0.67446397  0.54846611  0.85318934     0.11110
H648        H  0.54679324  0.43014029  0.95263050     0.11110
C649        C  0.70146222  0.54298103  0.58453055    -0.15030
C650        C  0.70592135  0.49877724  0.56604932     0.07120
C651        C  0.68426742  0.45160926  0.59646936    -0.15030
C652        C  0.65378418  0.44705297  0.64230343    -0.15030
C653        C  0.64488868  0.48970023  0.65809128     0.07120
C654        C  0.67184195  0.53877938  0.63047228    -0.15030
H655        H  0.71789112  0.57957775  0.56141912     0.11110
H656        H  0.68706631  0.41695930  0.58242354     0.11110
H657        H  0.63365769  0.40882531  0.66283594     0.11110
H658        H  0.66612641  0.57251975  0.64167948     0.11110
C659        C  0.82398556  0.52937223  0.58423522    -0.15030
C660        C  0.80739101  0.49635588  0.53890511     0.07120
C661        C  0.82726930  0.46025912  0.53034561    -0.15030
C662        C  0.86233942  0.45687675  0.56579502    -0.15030
C663        C  0.87738881  0.48828157  0.61177994     0.07120
C664        C  0.85766146  0.52434406  0.62113422    -0.15030
H665        H  0.81127599  0.55914367  0.59107596     0.11110
H666        H  0.81540473  0.43406794  0.49617129     0.11110
H667        H  0.87626625  0.42808843  0.55800949     0.11110
H668        H  0.86884438  0.54896238  0.65643117     0.11110
C669        C  0.76536332  0.45248752  0.91223129    -0.15030
C670        C  0.78921096  0.49976548  0.94289787     0.07120
C671        C  0.83664472  0.54513737  0.92458998    -0.15030
C672        C  0.86249621  0.54223744  0.87837142    -0.15030
C673        C  0.84218573  0.49331461  0.85035902     0.07120
C674        C  0.79186079  0.44919069  0.86621936    -0.15030
H675        H  0.72890138  0.41695241  0.92618759     0.11110
H676        H  0.85550208  0.58183241  0.94791032     0.11110
H677        H  0.90097875  0.57705771  0.86716825     0.11110
H678        H  0.77525207  0.41095521  0.84554852     0.11110
loop_ 
_geom_bond_atom_site_label_1 
_geom_bond_atom_site_label_2 
_geom_bond_distance 
_geom_bond_site_symmetry_2 
_ccdc_geom_bond_type 
C1          C321   1.498   1_556  S
C1          C670   1.484       .  S
C1          C341   1.364   1_556  D
C2          C301   1.499       .  S
C2          C650   1.486       .  S
C2          C340   1.364       .  D
C3          C261   1.485       .  S
C3          C613   1.479       .  S
C3            C4   1.365       .  D
C4          C281   1.492       .  S
C4          C630   1.495       .  S
C5          C241   1.485       .  S
C5          C590   1.480       .  S
C5          C345   1.362       .  D
C6          C224   1.485   1_556  S
C6          C570   1.483       .  S
C6          C344   1.362       .  D
C7          C204   1.487       .  S
C7          C550   1.480       .  S
C7            C8   1.362       .  D
C8          C181   1.486       .  S
C8          C530   1.483       .  S
C9          C174   1.489       .  S
C9          C500   1.506   1_554  S
C9          C349   1.361   1_554  D
C10         C141   1.472       .  S
C10         C490   1.485       .  S
C10         C348   1.361       .  D
C11         C134   1.491       .  S
C11         C460   1.480   1_554  S
C11         C351   1.365   1_554  D
C12         C104   1.497       .  S
C12         C453   1.492       .  S
C12         C350   1.365       .  D
O13          C21   1.267       .  A
O13         Co33   2.013       .  S
O14          C22   1.289       .  A
O14         Co34   2.040   1_455  S
O15          C23   1.273       .  A
O15         Co35   1.902       .  S
O16          C24   1.264       .  A
O16         Co36   2.004       .  S
O17          C23   1.295       .  A
O17         Co34   2.056       .  S
O18          C24   1.267       .  A
O18         Co33   2.000   1_455  S
O19          C22   1.277       .  A
O19         Co36   1.925       .  S
O20          C21   1.258       .  A
O20         Co35   1.988       .  S
C21         C234   1.465       .  S
C22         C171   1.477       .  S
C23         C221   1.474       .  S
C24         C164   1.488       .  S
O25          C38   1.264       .  A
O25         Co33   1.973   1_455  S
O26          C39   1.253       .  A
O26         Co34   1.986       .  S
O27          C40   1.270       .  A
O27         Co35   2.018       .  S
O28          C41   1.245       .  A
O28         Co36   1.969       .  S
O29          C41   1.256       .  A
O29         Co34   2.000   1_455  S
O30          C40   1.262       .  A
O30         Co33   1.970       .  S
O31          C38   1.272       .  A
O31         Co36   2.004       .  S
O32          C39   1.248       .  A
O32         Co35   1.978       .  S
Co33         O37   2.065       .  S
Co34         O37   2.234       .  S
Co35         O37   1.943       .  S
Co36         O37   1.973   1_455  S
C38         C124   1.468       .  S
C39         C324   1.472       .  S
C40         C334   1.480       .  S
C41         C131   1.474       .  S
O42          C50   1.278       .  A
O42         Co62   2.025       .  S
O43          C51   1.260       .  A
O43         Co63   2.003       .  S
O44          C52   1.266       .  A
O44         Co64   1.890       .  S
O45          C53   1.257       .  A
O45         Co65   1.958       .  S
O46          C52   1.294       .  A
O46         Co63   2.102       .  S
O47          C53   1.275       .  A
O47         Co62   2.028       .  S
O48          C51   1.249       .  A
O48         Co65   1.964       .  S
O49          C50   1.267       .  A
O49         Co64   1.974       .  S
C50         C271   1.467       .  S
C51         C144   1.455       .  S
C52         C264   1.467       .  S
C53         C154   1.470       .  S
O54          C67   1.261       .  A
O54         Co62   1.964       .  S
O55          C68   1.263       .  A
O55         Co63   1.885       .  S
O56          C69   1.264       .  A
O56         Co64   2.015       .  S
O57          C70   1.283       .  A
O57         Co65   2.041       .  S
O58          C70   1.267       .  A
O58         Co63   1.968       .  S
O59          C69   1.255       .  A
O59         Co62   1.967       .  S
O60          C67   1.272       .  A
O60         Co65   2.021       .  S
O61          C68   1.296       .  A
O61         Co64   2.109       .  S
Co62         O66   2.020       .  S
Co63         O66   1.999       .  S
Co64         O66   2.018       .  S
Co65         O66   2.024       .  S
C67         C194   1.483       .  S
C68         C304   1.468       .  S
C69         C314   1.480       .  S
C70         C184   1.486       .  S
O71          C79   1.264       .  A
O71         Co91   1.972   1_545  S
O72          C80   1.253       .  A
O72         Co92   1.994       .  S
O73          C81   1.244       .  A
O73         Co93   1.977       .  S
O74          C82   1.270       .  A
O74         Co94   2.003       .  S
O75          C81   1.253       .  A
O75         Co92   2.002   1_545  S
O76          C82   1.266       .  A
O76         Co91   1.980       .  S
O77          C80   1.245       .  A
O77         Co94   1.961       .  S
O78          C79   1.271       .  A
O78         Co93   2.006       .  S
C79         C254   1.474       .  S
C80         C201   1.463       .  S
C81         C244   1.472       .  S
C82         C214   1.476       .  S
O83          C96   1.267       .  A
O83         Co91   1.990       .  S
O84          C97   1.293       .  A
O84         Co92   2.048   1_545  S
O85          C98   1.263       .  A
O85         Co93   2.003       .  S
O86          C99   1.273       .  A
O86         Co94   1.903       .  S
O87          C99   1.294       .  A
O87         Co92   2.059       .  S
O88          C98   1.268       .  A
O88         Co91   2.003   1_545  S
O89          C96   1.264       .  A
O89         Co94   1.996       .  S
O90          C97   1.276       .  A
O90         Co93   1.909       .  S
Co91         O95   2.064       .  S
Co92         O95   2.239       .  S
Co93         O95   1.946   1_545  S
Co94         O95   1.958       .  S
C96         C111   1.483       .  S
C97         C284   1.476       .  S
C98         C294   1.486       .  S
C99         C101   1.477       .  S
C100        C101   1.407       .  A
C100        C105   1.400       .  A
C100        H106   1.083       .  S
C101        C102   1.404       .  A
C102        C103   1.394       .  A
C102        H107   1.083       .  S
C103        C104   1.405       .  A
C103        H108   1.081       .  S
C104        C105   1.402       .  A
C105        H109   1.083       .  S
C110        C111   1.409       .  A
C110        C115   1.413       .  A
C110        H116   1.083       .  S
C111        C112   1.405       .  A
C112        C113   1.381       .  A
C112        H117   1.083       .  S
C113        C114   1.400       .  A
C113        H118   1.083       .  S
C114        C351   1.490   1_554  S
C114        C115   1.410       .  A
C115        H119   1.082       .  S
C120        C121   1.400       .  A
C120        C125   1.390       .  A
C120        H126   1.084       .  S
C121        C350   1.480       .  S
C121        C122   1.401       .  A
C122        C123   1.398       .  A
C122        H127   1.083       .  S
C123        C124   1.406       .  A
C123        H128   1.083       .  S
C124        C125   1.403       .  A
C125        H129   1.083       .  S
C130        C131   1.399       .  A
C130        C135   1.396       .  A
C130        H136   1.084       .  S
C131        C132   1.406       .  A
C132        C133   1.405       .  A
C132        H137   1.083       .  S
C133        C134   1.406       .  A
C133        H138   1.083       .  S
C134        C135   1.407       .  A
C135        H139   1.083       .  S
C140        C141   1.406       .  A
C140        C145   1.395       .  A
C140        H146   1.083       .  S
C141        C142   1.401       .  A
C142        C143   1.393       .  A
C142        H147   1.083       .  S
C143        C144   1.401       .  A
C143        H148   1.080       .  S
C144        C145   1.396       .  A
C145        H149   1.083       .  S
C150        C151   1.401       .  A
C150        C155   1.402       .  A
C150        H156   1.083       .  S
C151        C349   1.485   1_554  S
C151        C152   1.405       .  A
C152        C153   1.390       .  A
C152        H157   1.083       .  S
C153        C154   1.400       .  A
C153        H158   1.083       .  S
C154        C155   1.408       .  A
C155        H159   1.083       .  S
C160        C161   1.413       .  A
C160        C165   1.412       .  A
C160        H166   1.081       .  S
C161        C348   1.506       .  S
C161        C162   1.404       .  A
C162        C163   1.388       .  A
C162        H167   1.083       .  S
C163        C164   1.406       .  A
C163        H168   1.083       .  S
C164        C165   1.407       .  A
C165        H169   1.083       .  S
C170        C171   1.407       .  A
C170        C175   1.394       .  A
C170        H176   1.083       .  S
C171        C172   1.405       .  A
C172        C173   1.401       .  A
C172        H177   1.083       .  S
C173        C174   1.407       .  A
C173        H178   1.083       .  S
C174        C175   1.399       .  A
C175        H179   1.083       .  S
C180        C181   1.403       .  A
C180        C185   1.405       .  A
C180        H186   1.083       .  S
C181        C182   1.401       .  A
C182        C183   1.395       .  A
C182        H187   1.083       .  S
C183        C184   1.405       .  A
C183        H188   1.080       .  S
C184        C185   1.409       .  A
C185        H189   1.083       .  S
C190        C191   1.400       .  A
C190        C195   1.400       .  A
C190        H196   1.083       .  S
C191        C347   1.483   1_554  S
C191        C192   1.401       .  A
C192        C193   1.397       .  A
C192        H197   1.083       .  S
C193        C194   1.407       .  A
C193        H198   1.083       .  S
C194        C195   1.409       .  A
C195        H199   1.083       .  S
C200        C201   1.400       .  A
C200        C205   1.401       .  A
C200        H206   1.083       .  S
C201        C202   1.399       .  A
C202        C203   1.393       .  A
C202        H207   1.083       .  S
C203        C204   1.403       .  A
C203        H208   1.078       .  S
C204        C205   1.408       .  A
C205        H209   1.082       .  S
C210        C211   1.399       .  A
C210        C215   1.393       .  A
C210        H216   1.083       .  S
C211        C346   1.481   1_554  S
C211        C212   1.402       .  A
C212        C213   1.400       .  A
C212        H217   1.083       .  S
C213        C214   1.406       .  A
C213        H218   1.083       .  S
C214        C215   1.406       .  A
C215        H219   1.083       .  S
C220        C221   1.404       .  A
C220        C225   1.392       .  A
C220        H226   1.083       .  S
C221        C222   1.407       .  A
C222        C223   1.403       .  A
C222        H227   1.083       .  S
C223        C224   1.403       .  A
C223        H228   1.083       .  S
C224        C225   1.401       .  A
C225        H229   1.083       .  S
C230        C231   1.407       .  A
C230        C235   1.401       .  A
C230        H236   1.083       .  S
C231        C345   1.483       .  S
C231        C232   1.403       .  A
C232        C233   1.395       .  A
C232        H237   1.082       .  S
C233        C234   1.402       .  A
C233        H238   1.083       .  S
C234        C235   1.400       .  A
C235        H239   1.083       .  S
C240        C241   1.403       .  A
C240        C245   1.393       .  A
C240        H246   1.083       .  S
C241        C242   1.406       .  A
C242        C243   1.407       .  A
C242        H247   1.083       .  S
C243        C244   1.405       .  A
C243        H248   1.083       .  S
C244        C245   1.400       .  A
C245        H249   1.081       .  S
C250        C251   1.399       .  A
C250        C255   1.398       .  A
C250        H256   1.083       .  S
C251        C344   1.480   1_554  S
C251        C252   1.401       .  A
C252        C253   1.392       .  A
C252        H257   1.082       .  S
C253        C254   1.405       .  A
C253        H258   1.083       .  S
C254        C255   1.407       .  A
C255        H259   1.083       .  S
C260        C261   1.404       .  A
C260        C265   1.405       .  A
C260        H266   1.083       .  S
C261        C262   1.401       .  A
C262        C263   1.389       .  A
C262        H267   1.083       .  S
C263        C264   1.399       .  A
C263        H268   1.084       .  S
C264        C265   1.405       .  A
C265        H269   1.083       .  S
C270        C271   1.401       .  A
C270        C275   1.402       .  A
C270        H276   1.083       .  S
C271        C272   1.403       .  A
C272        C273   1.396       .  A
C272        H277   1.083       .  S
C273        C274   1.402       .  A
C273        H278   1.083       .  S
C274        C342   1.479       .  S
C274        C275   1.406       .  A
C275        H279   1.083       .  S
C280        C281   1.405       .  A
C280        C285   1.393       .  A
C280        H286   1.080       .  S
C281        C282   1.401       .  A
C282        C283   1.400       .  A
C282        H287   1.083       .  S
C283        C284   1.408       .  A
C283        H288   1.083       .  S
C284        C285   1.402       .  A
C285        H289   1.083       .  S
C290        C291   1.410       .  A
C290        C295   1.413       .  A
C290        H296   1.083       .  S
C291        C343   1.495   1_554  S
C291        C292   1.401       .  A
C292        C293   1.387       .  A
C292        H297   1.082       .  S
C293        C294   1.405       .  A
C293        H298   1.083       .  S
C294        C295   1.409       .  A
C295        H299   1.083       .  S
C300        C301   1.406       .  A
C300        C305   1.389       .  A
C300        H306   1.082       .  S
C301        C302   1.412       .  A
C302        C303   1.404       .  A
C302        H307   1.081       .  S
C303        C304   1.402       .  A
C303        H308   1.083       .  S
C304        C305   1.400       .  A
C305        H309   1.084       .  S
C310        C311   1.399       .  A
C310        C315   1.393       .  A
C310        H316   1.083       .  S
C311        C341   1.486       .  S
C311        C312   1.405       .  A
C312        C313   1.402       .  A
C312        H317   1.083       .  S
C313        C314   1.407       .  A
C313        H318   1.083       .  S
C314        C315   1.407       .  A
C315        H319   1.083       .  S
C320        C321   1.411       .  A
C320        C325   1.405       .  A
C320        H326   1.081       .  S
C321        C322   1.405       .  A
C322        C323   1.389       .  A
C322        H327   1.082   1_554  S
C323        C324   1.402       .  A
C323        H328   1.084       .  S
C324        C325   1.403       .  A
C325        H329   1.083       .  S
C330        C331   1.404       .  A
C330        C335   1.402       .  A
C330        H336   1.083       .  S
C331        C340   1.484       .  S
C331        C332   1.399       .  A
C332        C333   1.393       .  A
C332        H337   1.083       .  S
C333        C334   1.407       .  A
C333        H338   1.083       .  S
C334        C335   1.408       .  A
C335        H339   1.083       .  S
C340        C660   1.498       .  S
C341        C640   1.499   1_554  S
C342        C600   1.485   1_554  S
C342        C343   1.365   1_554  D
C343        C620   1.492       .  S
C344        C580   1.485       .  S
C345        C563   1.485       .  S
C346        C543   1.487       .  S
C346        C347   1.362       .  D
C347        C520   1.486       .  S
C348        C513   1.489       .  S
C349        C480   1.472       .  S
C350        C473   1.491       .  S
C351        C443   1.497       .  S
O352        C360   1.267       .  A
O352       Co372   2.013       .  S
O353        C361   1.289       .  A
O353       Co373   2.040   1_455  S
O354        C362   1.273       .  A
O354       Co374   1.902       .  S
O355        C363   1.264       .  A
O355       Co375   2.004       .  S
O356        C362   1.295       .  A
O356       Co373   2.056       .  S
O357        C363   1.267       .  A
O357       Co372   2.000   1_455  S
O358        C361   1.277       .  A
O358       Co375   1.925       .  S
O359        C360   1.258       .  A
O359       Co374   1.988       .  S
C360        C573   1.465       .  S
C361        C510   1.477       .  S
C362        C560   1.474       .  S
C363        C503   1.488       .  S
O364        C377   1.264       .  A
O364       Co372   1.973   1_455  S
O365        C378   1.253       .  A
O365       Co373   1.986       .  S
O366        C379   1.270       .  A
O366       Co374   2.018       .  S
O367        C380   1.245       .  A
O367       Co375   1.969       .  S
O368        C380   1.256       .  A
O368       Co373   2.000   1_455  S
O369        C379   1.262       .  A
O369       Co372   1.970       .  S
O370        C377   1.272       .  A
O370       Co375   2.004       .  S
O371        C378   1.248       .  A
O371       Co374   1.978       .  S
Co372       O376   2.065       .  S
Co373       O376   2.234       .  S
Co374       O376   1.943       .  S
Co375       O376   1.973   1_455  S
C377        C463   1.467       .  S
C378        C663   1.472       .  S
C379        C673   1.480       .  S
C380        C470   1.474       .  S
O381        C389   1.278       .  A
O381       Co401   2.025       .  S
O382        C390   1.260       .  A
O382       Co402   2.003       .  S
O383        C391   1.266       .  A
O383       Co403   1.890       .  S
O384        C392   1.257       .  A
O384       Co404   1.958       .  S
O385        C391   1.294       .  A
O385       Co402   2.102       .  S
O386        C392   1.275       .  A
O386       Co401   2.028       .  S
O387        C390   1.249       .  A
O387       Co404   1.964       .  S
O388        C389   1.267       .  A
O388       Co403   1.974       .  S
C389        C610   1.467       .  S
C390        C483   1.455       .  S
C391        C603   1.466       .  S
C392        C493   1.470       .  S
O393        C406   1.261       .  A
O393       Co401   1.964       .  S
O394        C407   1.263       .  A
O394       Co402   1.885       .  S
O395        C408   1.264       .  A
O395       Co403   2.015       .  S
O396        C409   1.283       .  A
O396       Co404   2.041       .  S
O397        C409   1.267       .  A
O397       Co402   1.968       .  S
O398        C408   1.255       .  A
O398       Co401   1.967       .  S
O399        C406   1.272       .  A
O399       Co404   2.021       .  S
O400        C407   1.296       .  A
O400       Co403   2.109       .  S
Co401       O405   2.020       .  S
Co402       O405   1.999       .  S
Co403       O405   2.018       .  S
Co404       O405   2.024       .  S
C406        C533   1.483       .  S
C407        C643   1.468       .  S
C408        C653   1.480       .  S
C409        C523   1.486       .  S
O410        C418   1.264       .  A
O410       Co430   1.972   1_545  S
O411        C419   1.253       .  A
O411       Co431   1.993       .  S
O412        C420   1.244       .  A
O412       Co432   1.977       .  S
O413        C421   1.270       .  A
O413       Co433   2.003       .  S
O414        C420   1.253       .  A
O414       Co431   2.002   1_545  S
O415        C421   1.266       .  A
O415       Co430   1.980       .  S
O416        C419   1.245       .  A
O416       Co433   1.962       .  S
O417        C418   1.271       .  A
O417       Co432   2.006       .  S
C418        C593   1.474       .  S
C419        C540   1.463       .  S
C420        C583   1.472       .  S
C421        C553   1.476       .  S
O422        C435   1.267       .  A
O422       Co430   1.990       .  S
O423        C436   1.293       .  A
O423       Co431   2.048   1_545  S
O424        C437   1.263       .  A
O424       Co432   2.003       .  S
O425        C438   1.273       .  A
O425       Co433   1.903       .  S
O426        C438   1.294       .  A
O426       Co431   2.058       .  S
O427        C437   1.268       .  A
O427       Co430   2.003   1_545  S
O428        C435   1.264       .  A
O428       Co433   1.996       .  S
O429        C436   1.276       .  A
O429       Co432   1.909       .  S
Co430       O434   2.064       .  S
Co431       O434   2.239       .  S
Co432       O434   1.946   1_545  S
Co433       O434   1.958       .  S
C435        C450   1.484       .  S
C436        C623   1.476       .  S
C437        C633   1.486       .  S
C438        C440   1.477       .  S
C439        C440   1.407       .  A
C439        C444   1.400       .  A
C439        H445   1.083       .  S
C440        C441   1.404       .  A
C441        C442   1.394       .  A
C441        H446   1.083       .  S
C442        C443   1.405       .  A
C442        H447   1.081       .  S
C443        C444   1.402       .  A
C444        H448   1.083       .  S
C449        C450   1.409       .  A
C449        C454   1.413       .  A
C449        H455   1.083       .  S
C450        C451   1.405       .  A
C451        C452   1.381       .  A
C451        H456   1.083       .  S
C452        C453   1.401       .  A
C452        H457   1.083       .  S
C453        C454   1.410       .  A
C454        H458   1.082       .  S
C459        C460   1.400       .  A
C459        C464   1.390       .  A
C459        H465   1.084       .  S
C460        C461   1.401       .  A
C461        C462   1.399       .  A
C461        H466   1.083       .  S
C462        C463   1.406       .  A
C462        H467   1.083       .  S
C463        C464   1.403       .  A
C464        H468   1.083       .  S
C469        C470   1.399       .  A
C469        C474   1.396       .  A
C469        H475   1.084       .  S
C470        C471   1.406       .  A
C471        C472   1.405       .  A
C471        H476   1.083       .  S
C472        C473   1.406       .  A
C472        H477   1.083       .  S
C473        C474   1.407       .  A
C474        H478   1.083       .  S
C479        C480   1.406       .  A
C479        C484   1.395       .  A
C479        H485   1.083       .  S
C480        C481   1.401       .  A
C481        C482   1.393       .  A
C481        H486   1.083       .  S
C482        C483   1.401       .  A
C482        H487   1.080       .  S
C483        C484   1.396       .  A
C484        H488   1.083       .  S
C489        C490   1.401       .  A
C489        C494   1.402       .  A
C489        H495   1.083       .  S
C490        C491   1.405       .  A
C491        C492   1.390       .  A
C491        H496   1.083       .  S
C492        C493   1.400       .  A
C492        H497   1.083       .  S
C493        C494   1.408       .  A
C494        H498   1.083       .  S
C499        C500   1.413       .  A
C499        C504   1.412       .  A
C499        H505   1.081       .  S
C500        C501   1.404       .  A
C501        C502   1.388       .  A
C501        H506   1.083   1_556  S
C502        C503   1.406       .  A
C502        H507   1.083       .  S
C503        C504   1.407       .  A
C504        H508   1.083       .  S
C509        C510   1.407       .  A
C509        C514   1.394       .  A
C509        H515   1.083       .  S
C510        C511   1.405       .  A
C511        C512   1.401       .  A
C511        H516   1.083       .  S
C512        C513   1.407       .  A
C512        H517   1.083       .  S
C513        C514   1.399       .  A
C514        H518   1.083       .  S
C519        C520   1.403       .  A
C519        C524   1.405       .  A
C519        H525   1.083       .  S
C520        C521   1.401       .  A
C521        C522   1.395       .  A
C521        H526   1.083       .  S
C522        C523   1.405       .  A
C522        H527   1.080       .  S
C523        C524   1.409       .  A
C524        H528   1.083       .  S
C529        C530   1.400       .  A
C529        C534   1.400       .  A
C529        H535   1.083       .  S
C530        C531   1.401       .  A
C531        C532   1.397       .  A
C531        H536   1.083       .  S
C532        C533   1.407       .  A
C532        H537   1.083       .  S
C533        C534   1.409       .  A
C534        H538   1.083       .  S
C539        C540   1.400       .  A
C539        C544   1.401       .  A
C539        H545   1.083       .  S
C540        C541   1.399       .  A
C541        C542   1.393       .  A
C541        H546   1.083       .  S
C542        C543   1.403       .  A
C542        H547   1.078       .  S
C543        C544   1.408       .  A
C544        H548   1.082       .  S
C549        C550   1.399       .  A
C549        C554   1.392       .  A
C549        H555   1.083       .  S
C550        C551   1.402       .  A
C551        C552   1.400       .  A
C551        H556   1.083       .  S
C552        C553   1.406       .  A
C552        H557   1.083       .  S
C553        C554   1.406       .  A
C554        H558   1.083       .  S
C559        C560   1.404       .  A
C559        C564   1.392       .  A
C559        H565   1.083       .  S
C560        C561   1.407       .  A
C561        C562   1.403       .  A
C561        H566   1.083       .  S
C562        C563   1.403       .  A
C562        H567   1.083       .  S
C563        C564   1.401       .  A
C564        H568   1.083       .  S
C569        C570   1.407       .  A
C569        C574   1.401       .  A
C569        H575   1.083       .  S
C570        C571   1.403       .  A
C571        C572   1.396       .  A
C571        H576   1.082       .  S
C572        C573   1.402       .  A
C572        H577   1.083       .  S
C573        C574   1.400       .  A
C574        H578   1.083       .  S
C579        C580   1.403       .  A
C579        C584   1.393       .  A
C579        H585   1.083       .  S
C580        C581   1.406       .  A
C581        C582   1.407       .  A
C581        H586   1.083       .  S
C582        C583   1.405       .  A
C582        H587   1.083       .  S
C583        C584   1.400       .  A
C584        H588   1.081       .  S
C589        C590   1.399       .  A
C589        C594   1.398       .  A
C589        H595   1.083       .  S
C590        C591   1.401       .  A
C591        C592   1.392       .  A
C591        H596   1.082       .  S
C592        C593   1.405       .  A
C592        H597   1.083       .  S
C593        C594   1.407       .  A
C594        H598   1.083       .  S
C599        C600   1.404       .  A
C599        C604   1.405       .  A
C599        H605   1.083       .  S
C600        C601   1.401       .  A
C601        C602   1.389       .  A
C601        H606   1.083       .  S
C602        C603   1.399       .  A
C602        H607   1.084       .  S
C603        C604   1.405       .  A
C604        H608   1.083       .  S
C609        C610   1.401       .  A
C609        C614   1.402       .  A
C609        H615   1.083       .  S
C610        C611   1.403       .  A
C611        C612   1.396       .  A
C611        H616   1.083       .  S
C612        C613   1.402       .  A
C612        H617   1.083       .  S
C613        C614   1.406       .  A
C614        H618   1.083       .  S
C619        C620   1.405       .  A
C619        C624   1.393       .  A
C619        H625   1.080       .  S
C620        C621   1.401       .  A
C621        C622   1.400       .  A
C621        H626   1.083       .  S
C622        C623   1.408       .  A
C622        H627   1.083       .  S
C623        C624   1.402       .  A
C624        H628   1.083       .  S
C629        C630   1.410       .  A
C629        C634   1.413       .  A
C629        H635   1.083       .  S
C630        C631   1.401       .  A
C631        C632   1.387       .  A
C631        H636   1.082       .  S
C632        C633   1.405       .  A
C632        H637   1.083       .  S
C633        C634   1.409       .  A
C634        H638   1.083       .  S
C639        C640   1.406       .  A
C639        C644   1.389       .  A
C639        H645   1.082   1_556  S
C640        C641   1.412       .  A
C641        C642   1.404       .  A
C641        H646   1.081       .  S
C642        C643   1.402       .  A
C642        H647   1.083       .  S
C643        C644   1.400       .  A
C644        H648   1.084       .  S
C649        C650   1.399       .  A
C649        C654   1.393       .  A
C649        H655   1.083       .  S
C650        C651   1.405       .  A
C651        C652   1.402       .  A
C651        H656   1.083       .  S
C652        C653   1.407       .  A
C652        H657   1.083       .  S
C653        C654   1.407       .  A
C654        H658   1.083       .  S
C659        C660   1.411       .  A
C659        C664   1.404       .  A
C659        H665   1.081       .  S
C660        C661   1.405       .  A
C661        C662   1.389       .  A
C661        H666   1.082       .  S
C662        C663   1.402       .  A
C662        H667   1.084       .  S
C663        C664   1.403       .  A
C664        H668   1.083       .  S
C669        C670   1.404       .  A
C669        C674   1.402       .  A
C669        H675   1.083       .  S
C670        C671   1.399       .  A
C671        C672   1.393       .  A
C671        H676   1.083       .  S
C672        C673   1.407       .  A
C672        H677   1.083       .  S
C673        C674   1.408       .  A
C674        H678   1.083       .  S
