geometry optimzed in LAMMPS
_audit_creation_date              2020-11-30 
_audit_creation_method            'lammps2cif' 
_symmetry_space_group_name_H-M    'P1' 
_symmetry_Int_Tables_number       1 
_symmetry_cell_setting            triclinic 
loop_ 
_symmetry_equiv_pos_as_xyz 
  x,y,z 
_cell_length_a                    43.73362443 
_cell_length_b                    43.713615553964964 
_cell_length_c                    43.714796117892504 
_cell_angle_alpha                 89.84239870379162 
_cell_angle_beta                  89.74906137363178 
_cell_angle_gamma                 89.94187509021833 
loop_ 
_atom_site_label 
_atom_site_type_symbol 
_atom_site_fract_x 
_atom_site_fract_y 
_atom_site_fract_z 
_atom_site_charge 
O1          O  0.78619497  0.41894539  0.51674021    -0.86000
O2          O  0.75896734  0.37592997  0.55179207    -0.83000
C3          C  0.76104064  0.35499895  0.57148756     0.97500
O4          O  0.76874907  0.36184155  0.59846036    -0.83100
O5          O  0.83025342  0.36873463  0.59528121    -0.85700
C6          C  0.85694093  0.37891879  0.59365203     1.02000
O7          O  0.86063376  0.40716739  0.58828737    -0.78500
O8          O  0.83394761  0.41260277  0.53206086    -0.78700
C9          C  0.81392507  0.41136836  0.51155930     1.01900
O10         O  0.76310977  0.46693692  0.55731700    -0.86000
O11         O  0.73409901  0.42368703  0.59476761    -0.83100
C12         C  0.74020773  0.42573702  0.62334427     0.97500
O13         O  0.76582555  0.41755192  0.63319728    -0.83100
O14         O  0.82753040  0.42170244  0.63576237    -0.85700
C15         C  0.83492405  0.44946309  0.63119611     1.02000
O16         O  0.82975057  0.46218598  0.60579405    -0.78500
O17         O  0.81117508  0.47180658  0.54502934    -0.78700
C18         C  0.78423011  0.48244092  0.54495321     1.01900
Cr19       Cr  0.76297609  0.42110185  0.55728278     1.93700
Cr20       Cr  0.79784245  0.39438374  0.61289239     1.93200
Cr21       Cr  0.83085854  0.43707097  0.56873447     1.39100
O22         O  0.79672929  0.41787562  0.57973400    -1.23700
O23         O  0.52194153  0.79881391  0.36673006    -0.86000
O24         O  0.56965401  0.76701508  0.34581389    -0.83000
C25         C  0.57887677  0.78555422  0.32509832     0.97500
O26         O  0.59531509  0.80800488  0.33276460    -0.83100
O27         O  0.61438175  0.85898475  0.36398595    -0.85700
C28         C  0.59246976  0.87682267  0.35870781     1.02000
O29         O  0.56633094  0.87101849  0.36961891    -0.78500
O30         O  0.51888980  0.83876986  0.39664549    -0.78700
C31         C  0.50890602  0.82316104  0.37461004     1.01900
O32         O  0.53471542  0.78437511  0.43102931    -0.86000
O33         O  0.58859654  0.75516447  0.41062917    -0.83100
C34         C  0.61559982  0.75318886  0.40021492     0.97500
O35         O  0.62377632  0.77031728  0.37848536    -0.83100
O36         O  0.63425240  0.82260328  0.41314691    -0.85700
C37         C  0.62831670  0.84731078  0.42704665     1.02000
O38         O  0.60277097  0.86052048  0.42341347    -0.78500
O39         O  0.55660220  0.82590209  0.44811379    -0.78700
C40         C  0.53977731  0.80298966  0.45293175     1.01900
Cr41       Cr  0.55551417  0.77862542  0.38906101     1.93700
Cr42       Cr  0.61395752  0.81447090  0.37339576     1.93200
Cr43       Cr  0.56226714  0.84634568  0.40806765     1.39100
O44         O  0.57721013  0.81300669  0.39065262    -1.23700
O45         O  0.39730946  0.54597529  0.78877958    -0.86000
O46         O  0.35475747  0.58081092  0.75998958    -0.83000
C47         C  0.33361173  0.59880031  0.76784472     0.97500
O48         O  0.34014053  0.62435831  0.77930579    -0.83100
O49         O  0.35993842  0.62637939  0.83748704    -0.85700
C50         C  0.37626908  0.62641898  0.86096620     1.02000
O51         O  0.40464830  0.62350484  0.85835317    -0.78500
O52         O  0.40080777  0.56493577  0.83582035    -0.78700
C53         C  0.39374455  0.54347274  0.81785525     1.01900
O54         O  0.44635505  0.58109889  0.75721224    -0.86000
O55         O  0.40350110  0.62047631  0.73157195    -0.83100
C56         C  0.40193131  0.64948456  0.73573509     0.97500
O57         O  0.39197568  0.66015092  0.76048331    -0.83100
O58         O  0.41088116  0.66573037  0.81877958    -0.85700
C59         C  0.43965609  0.66151141  0.81953024     1.02000
O60         O  0.45126363  0.63541810  0.81510519    -0.78500
O61         O  0.45548127  0.57219044  0.80499882    -0.78700
C62         C  0.46375687  0.57054671  0.77766065     1.01900
Cr63       Cr  0.40049528  0.58432704  0.76180642     1.93700
Cr64       Cr  0.37759037  0.64134730  0.79846934     1.93200
Cr65       Cr  0.42598331  0.59986447  0.82547902     1.39100
O66         O  0.40124708  0.60849245  0.79452851    -1.23700
O67         O  0.73105351  0.67333372  0.46228712    -0.86000
O68         O  0.74846935  0.71216291  0.50915837    -0.83000
C69         C  0.74782399  0.72245413  0.53629351     0.97500
O70         O  0.74581841  0.70392076  0.55833835    -0.83100
O71         O  0.68672738  0.68432226  0.55208449    -0.85700
C72         C  0.66426849  0.67036927  0.54073312     1.02000
O73         O  0.66679938  0.64233023  0.53394175    -0.78500
O74         O  0.68671266  0.65584426  0.47854738    -0.78700
C75         C  0.70178130  0.67242231  0.46066050     1.01900
O76         O  0.77366435  0.62458885  0.49210731    -0.86000
O77         O  0.78999885  0.66568743  0.53414514    -0.83100
C78         C  0.78883935  0.65083961  0.55925379     0.97500
O79         O  0.76375382  0.64334505  0.57125354    -0.83100
O80         O  0.70488196  0.62503583  0.57551484    -0.85700
C81         C  0.71022101  0.59867320  0.56505271     1.02000
O82         O  0.71334912  0.59478534  0.53701391    -0.78500
O83         O  0.72987109  0.60710941  0.47897401    -0.78700
C84         C  0.75683394  0.60168721  0.48733036     1.01900
Cr85       Cr  0.75861530  0.66773296  0.50009156     1.93700
Cr86       Cr  0.72524263  0.66347334  0.56162340     1.93200
Cr87       Cr  0.70116462  0.62657812  0.50809582     1.39100
O88         O  0.72839340  0.65299884  0.52295529    -1.23700
O89         O  0.46513521  0.75880604  0.64779057    -0.86000
O90         O  0.51453406  0.77445487  0.68533002    -0.83000
C91         C  0.54197401  0.77240566  0.69468536     0.97500
O92         O  0.56332902  0.76922138  0.67535655    -0.83100
O93         O  0.55567382  0.71027266  0.65485990    -0.85700
C94         C  0.54686271  0.68736300  0.63983847     1.02000
O95         O  0.53344167  0.69058138  0.61445894    -0.78500
O96         O  0.47945243  0.71298867  0.63264801    -0.78700
C97         C  0.46185282  0.72963440  0.64795792     1.01900
O98         O  0.49546196  0.79882159  0.59794836    -0.86000
O99         O  0.53950896  0.81454769  0.63781878    -0.83100
C100        C  0.56342695  0.81272249  0.62121324     0.97500
O101        O  0.57370643  0.78723745  0.61292967    -0.83100
O102        O  0.57505902  0.72824229  0.59518947    -0.85700
C103        C  0.56301959  0.72971458  0.56902595     1.02000
O104        O  0.53514494  0.73546484  0.56615125    -0.78500
O105        O  0.47844838  0.75533875  0.58293656    -0.78700
C106        C  0.48792538  0.78161675  0.57607729     1.01900
Cr107      Cr  0.50423627  0.78439917  0.64102176     1.93700
Cr108      Cr  0.56403526  0.74907127  0.63410169     1.93200
Cr109      Cr  0.50770001  0.72579161  0.60077494     1.39100
O110        O  0.52508810  0.75296812  0.62580631    -1.23700
O111        O  0.66689693  0.48327088  0.74115262    -0.86000
O112        O  0.69080585  0.53509950  0.77045290    -0.83000
C113        C  0.71049359  0.54743662  0.75249501     0.97500
O114        O  0.70277191  0.55471813  0.72585759    -0.83100
O115        O  0.67035051  0.56337018  0.67457871    -0.85700
C116        C  0.67423732  0.53776483  0.66162583     1.02000
O117        O  0.65939740  0.51468618  0.66983832    -0.78500
O118        O  0.62896217  0.47819618  0.71056453    -0.78700
C119        C  0.65580940  0.47084854  0.71757729     1.01900
O120        O  0.60219265  0.50443171  0.76021480    -0.86000
O121        O  0.62826911  0.55475789  0.78292423    -0.83100
C122        C  0.63964193  0.58114654  0.78160844     0.97500
O123        O  0.65882497  0.58809223  0.76108185    -0.83100
O124        O  0.62288503  0.59167246  0.71057235    -0.85700
C125        C  0.60707306  0.58448436  0.68776819     1.02000
O126        O  0.61160370  0.55939053  0.67418685    -0.78500
O127        O  0.58510376  0.52562551  0.71788567    -0.78700
C128        C  0.58036514  0.51650534  0.74467837     1.01900
Cr129      Cr  0.64687163  0.51951683  0.76138678     1.93700
Cr130      Cr  0.66237263  0.57220368  0.71839615     1.93200
Cr131      Cr  0.62268916  0.52022771  0.69505118     1.39100
O132        O  0.64394118  0.53743040  0.72518878    -1.23700
O133        O  0.66715299  0.46485472  0.25858770    -0.86000
O134        O  0.64626760  0.51263237  0.22596696    -0.83000
C135        C  0.63609268  0.52546426  0.20232073     0.97500
O136        O  0.61134488  0.51635027  0.19045476    -0.83100
O137        O  0.63270896  0.46898539  0.15539254    -0.85700
C138        C  0.64221918  0.44284206  0.14805657     1.02000
O139        O  0.64201479  0.42151304  0.16763955    -0.78500
O140        O  0.67718673  0.44037828  0.21631480    -0.78700
C141        C  0.68641665  0.45636312  0.23838264     1.01900
O142        O  0.60318299  0.44864632  0.27455969    -0.86000
O143        O  0.58327508  0.50338478  0.24596279    -0.83100
C144        C  0.55940360  0.49751419  0.23043922     0.97500
O145        O  0.56107362  0.47795721  0.20944729    -0.83100
O146        O  0.58175853  0.43200469  0.17190118    -0.85700
C147        C  0.58097064  0.40589122  0.18463208     1.02000
O148        O  0.59659638  0.40059606  0.20835268    -0.78500
O149        O  0.63437445  0.41288675  0.25835363    -0.78700
C150        C  0.61376652  0.42173021  0.27667836     1.01900
Cr151      Cr  0.62424589  0.48062864  0.24919564     1.93700
Cr152      Cr  0.59820185  0.47281914  0.18442141     1.93200
Cr153      Cr  0.63644867  0.42164459  0.21322269     1.39100
O154        O  0.61929807  0.45827581  0.21563406    -1.23700
O155        O  0.44172871  0.28955725  0.66081923    -0.86000
O156        O  0.49032243  0.26030213  0.63772787    -0.83000
C157        C  0.50393079  0.23719251  0.62737336     0.97500
O158        O  0.49478041  0.22465512  0.60310134    -0.83100
O159        O  0.45021933  0.18756764  0.62794372    -0.85700
C160        C  0.42474613  0.17911486  0.63852251     1.02000
O161        O  0.40199676  0.19672231  0.63705115    -0.78500
O162        O  0.41972372  0.24609741  0.67208761    -0.78700
C163        C  0.43515583  0.26900816  0.68057692     1.01900
O164        O  0.42170047  0.30515166  0.59764382    -0.86000
O165        O  0.47719193  0.27899823  0.57475593    -0.83100
C166        C  0.47248278  0.26209051  0.55140340     0.97500
O167        O  0.45474259  0.23958431  0.55397801    -0.83100
O168        O  0.41139349  0.20068969  0.57718206    -0.85700
C169        C  0.38515387  0.21287859  0.57563777     1.02000
O170        O  0.37840310  0.23594693  0.59181284    -0.78500
O171        O  0.38833473  0.28618122  0.62984234    -0.78700
C172        C  0.39492875  0.30517805  0.60903023     1.01900
Cr173      Cr  0.45611511  0.28136415  0.61700008     1.93700
Cr174      Cr  0.45158287  0.21562775  0.59216696     1.93200
Cr175      Cr  0.39986077  0.24196276  0.63145143     1.39100
O176        O  0.43572888  0.24647373  0.61302801    -1.23700
O177        O  0.26077634  0.68400038  0.45624605    -0.86000
O178        O  0.23371182  0.63995829  0.48909813    -0.83000
C179        C  0.20600063  0.64820898  0.49311131     0.97500
O180        O  0.18664989  0.64657763  0.47185032    -0.83100
O181        O  0.16190087  0.65004795  0.41431633    -0.85700
C182        C  0.16418401  0.67875002  0.41194061     1.02000
O183        O  0.19029033  0.69047528  0.41077222    -0.78500
O184        O  0.25138103  0.70054893  0.41006741    -0.78700
C185        C  0.25811967  0.70571885  0.43760127     1.01900
O186        O  0.28855093  0.63864565  0.41323369    -0.86000
O187        O  0.25953431  0.59339678  0.44895582    -0.83100
C188        C  0.23798651  0.57783143  0.46052106     0.97500
O189        O  0.21123829  0.58847905  0.46012223    -0.83100
O190        O  0.19708322  0.59697956  0.39848138    -0.85700
C191        C  0.19444657  0.60952491  0.37261038     1.02000
O192        O  0.19797346  0.63822602  0.36931109    -0.78500
O193        O  0.25864416  0.64650694  0.37354110    -0.78700
C194        C  0.28404937  0.63871481  0.38428111     1.01900
Cr195      Cr  0.25853747  0.63925554  0.44963681     1.93700
Cr196      Cr  0.19203865  0.62196236  0.43533107     1.93200
Cr197      Cr  0.22470048  0.66700609  0.39361337     1.39100
O198        O  0.22573739  0.64244495  0.42605169    -1.23700
O199        O  0.25626069  0.43830129  0.52473626    -0.86000
O200        O  0.23565831  0.41253812  0.47352497    -0.83000
C201        C  0.23814778  0.40354651  0.44629996     0.97500
O202        O  0.26047503  0.38698914  0.43832346    -0.83100
O203        O  0.30811364  0.42726419  0.43847096    -0.85700
C204        C  0.32993306  0.44369957  0.44712007     1.02000
O205        O  0.34351386  0.43798832  0.47186036    -0.78500
O206        O  0.29824628  0.45907458  0.50613593    -0.78700
C207        C  0.27099152  0.46169848  0.51448901     1.01900
O208        O  0.28032983  0.37381911  0.54382205    -0.86000
O209        O  0.25399418  0.34996591  0.49102268    -0.83100
C210        C  0.27399442  0.33271462  0.47823364     0.97500
O211        O  0.29876165  0.34412246  0.46913954    -0.83100
O212        O  0.34772158  0.38052396  0.46338518    -0.85700
C213        C  0.36139013  0.37693256  0.48866514     1.02000
O214        O  0.35071457  0.38775287  0.51295177    -0.78500
O215        O  0.30762740  0.41379700  0.55109846    -0.78700
C216        C  0.30228351  0.38640580  0.55766683     1.01900
Cr217      Cr  0.25881751  0.39405994  0.50806853     1.93700
Cr218      Cr  0.30317237  0.38586696  0.45471435     1.93200
Cr219      Cr  0.32311705  0.42298088  0.50966304     1.39100
O220        O  0.29473513  0.40091760  0.49071362    -1.23700
O221        O  0.53587317  0.27733162  0.40967774    -0.86000
O222        O  0.48592694  0.25326757  0.38370025    -0.83000
C223        C  0.45903745  0.25373368  0.37359124     0.97500
O224        O  0.44925735  0.27680581  0.35926508    -0.83100
O225        O  0.44689202  0.32248973  0.40107625    -0.85700
C226        C  0.45545600  0.34253815  0.41966131     1.02000
O227        O  0.47763985  0.35988109  0.41276879    -0.78500
O228        O  0.51748899  0.31888801  0.43138147    -0.78700
C229        C  0.52622413  0.29178673  0.43351469     1.01900
O230        O  0.55165366  0.30336043  0.34460482    -0.86000
O231        O  0.50059275  0.27428451  0.32203568    -0.83100
C232        C  0.48514167  0.29299112  0.30559479     0.97500
O233        O  0.47581248  0.31767195  0.31691590    -0.83100
O234        O  0.46732851  0.36554925  0.35464800    -0.85700
C235        C  0.49192240  0.37942187  0.34821426     1.02000
O236        O  0.51661809  0.37170085  0.36029744    -0.78500
O237        O  0.55935960  0.33288717  0.38325143    -0.78700
C238        C  0.56485108  0.32635230  0.35577144     1.01900
Cr239      Cr  0.51835364  0.27949259  0.36564941     1.93700
Cr240      Cr  0.46224910  0.32039907  0.35920820     1.93200
Cr241      Cr  0.51685171  0.34390454  0.39522104     1.39100
O242        O  0.49911057  0.31421660  0.37344818    -1.23700
O243        O  0.41655152  0.54606620  0.23006125    -0.86000
O244        O  0.37749319  0.50059815  0.21664828    -0.83000
C245        C  0.39335003  0.47622256  0.21983651     0.97500
O246        O  0.40095184  0.46684931  0.24590726    -0.83100
O247        O  0.41948633  0.46896553  0.30416282    -0.85700
C248        C  0.44553287  0.47960539  0.29779943     1.02000
O249        O  0.44884492  0.50736416  0.29168576    -0.78500
O250        O  0.43220843  0.56452132  0.27243426    -0.78700
C251        C  0.43868960  0.55413385  0.24653629     1.01900
O252        O  0.36701290  0.57675675  0.27068951    -0.86000
O253        O  0.32969211  0.52713574  0.25609418    -0.83100
C254        C  0.32041460  0.49974385  0.25876508     0.97500
O255        O  0.33978660  0.47894071  0.26359604    -0.83100
O256        O  0.36052792  0.49060653  0.32216356    -0.85700
C257        C  0.37678353  0.50000800  0.34398142     1.02000
O258        O  0.40300540  0.51118182  0.33916596    -0.78500
O259        O  0.38485950  0.56435256  0.31621584    -0.78700
C260        C  0.36799350  0.58071916  0.29982794     1.01900
Cr261      Cr  0.37386717  0.53724933  0.24553486     1.93700
Cr262      Cr  0.38056179  0.47916770  0.28364413     1.93200
Cr263      Cr  0.41564474  0.53568056  0.30290152     1.39100
O264        O  0.38945760  0.51767351  0.27736470    -1.23700
O265        O  0.96681876  0.27602669  0.35200846    -0.86000
O266        O  0.00180115  0.30524875  0.39152263    -0.83000
C267        C  0.00557080  0.33113833  0.37870274     0.97500
O268        O  0.98584454  0.35202668  0.38088273    -0.83100
O269        O  0.92905017  0.37867802  0.37836091    -0.85700
C270        C  0.92254916  0.37367574  0.35075180     1.02000
O271        O  0.92123124  0.34659517  0.34162544    -0.78500
O272        O  0.92017834  0.28520063  0.33765885    -0.78700
C273        C  0.94745291  0.27815532  0.33100985     1.01900
O274        O  0.92556329  0.25311942  0.40180394    -0.86000
O275        O  0.96335642  0.28510783  0.44241177    -0.83100
C276        C  0.97554588  0.30756388  0.45588262     0.97500
O277        O  0.97557564  0.33353822  0.44304697    -0.83100
O278        O  0.91420993  0.35173572  0.43511230    -0.85700
C279        C  0.88800180  0.35471487  0.42323749     1.02000
O280        O  0.88264870  0.34521304  0.39632290    -0.78500
O281        O  0.88616787  0.28372347  0.39453665    -0.78700
C282        C  0.89697290  0.25882214  0.40387874     1.01900
Cr283      Cr  0.96207242  0.28217924  0.39670897     1.93700
Cr284      Cr  0.95044168  0.35091310  0.40829464     1.93200
Cr285      Cr  0.90534906  0.31502939  0.36941824     1.39100
O286        O  0.93895972  0.31552038  0.39208874    -1.23700
O287        O  0.17282491  0.07681514  0.74739906    -0.86000
O288        O  0.13194150  0.03987998  0.77329069    -0.83000
C289        C  0.14320203  0.03650737  0.79995412     0.97500
O290        O  0.13710590  0.05488369  0.82132015    -0.83100
O291        O  0.13185808  0.11073596  0.84986974    -0.85700
C292        C  0.15987618  0.11672398  0.84780805     1.02000
O293        O  0.17207359  0.11676083  0.82204107    -0.78500
O294        O  0.18600870  0.12193784  0.76350664    -0.78700
C295        C  0.19353832  0.09567438  0.75398335     1.01900
O296        O  0.12287244  0.11782900  0.72257630    -0.86000
O297        O  0.08132730  0.07777294  0.75014065    -0.83100
C298        C  0.06628858  0.06336308  0.77035596     0.97500
O299        O  0.07728283  0.06103229  0.79685608    -0.83100
O300        O  0.07891932  0.12260892  0.81518508    -0.85700
C301        C  0.08872905  0.14958040  0.81905995     1.02000
O302        O  0.11700506  0.15587846  0.81499300    -0.78500
O303        O  0.12977464  0.15601111  0.75460891    -0.78700
C304        C  0.12132605  0.14635146  0.72899685     1.01900
Cr305      Cr  0.12713459  0.08005126  0.75053193     1.93700
Cr306      Cr  0.10768285  0.08817257  0.81795288     1.93200
Cr307      Cr  0.14950953  0.13511229  0.78846425     1.39100
O308        O  0.12753502  0.10155658  0.78482418    -1.23700
O309        O  0.77014560  0.87084194  0.56668103    -0.86000
O310        O  0.73583577  0.89473008  0.52127074    -0.83000
C311        C  0.71203175  0.90642352  0.50994587     0.97500
O312        O  0.70184423  0.93125373  0.52051531    -0.83100
O313        O  0.66758742  0.90578110  0.56696252    -0.85700
C314        C  0.66154641  0.89299175  0.59215079     1.02000
O315        O  0.68068696  0.89368539  0.61359026    -0.78500
O316        O  0.72860923  0.85971255  0.59211214    -0.78700
C317        C  0.75048266  0.85113811  0.57533279     1.01900
O318        O  0.78725050  0.93385378  0.58651908    -0.86000
O319        O  0.75719414  0.95678836  0.53354044    -0.83100
C320        C  0.74174944  0.98073763  0.53984126     0.97500
O321        O  0.72065397  0.97911288  0.55960746    -0.83100
O322        O  0.68438538  0.95496045  0.60617493    -0.85700
C323        C  0.69707777  0.95395888  0.63214556     1.02000
O324        O  0.72088882  0.93817045  0.63636891    -0.78500
O325        O  0.77062548  0.90193524  0.62139180    -0.78700
C326        C  0.78854835  0.92330476  0.61366072     1.01900
Cr327      Cr  0.76064473  0.91471359  0.55381880     1.93700
Cr328      Cr  0.69619185  0.94114889  0.56444133     1.93200
Cr329      Cr  0.72576746  0.89975556  0.61297675     1.39100
O330        O  0.72770597  0.91913174  0.57730320    -1.23700
O331        O  0.75536910  0.12358730  0.47998831    -0.86000
O332        O  0.73173506  0.14761498  0.53073210    -0.83000
C333        C  0.73168734  0.15697380  0.55784961     0.97500
O334        O  0.75238089  0.17472026  0.56709110    -0.83100
O335        O  0.79843896  0.13334718  0.57009222    -0.85700
C336        C  0.81873064  0.11504094  0.56120214     1.02000
O337        O  0.83648288  0.12257444  0.53963949    -0.78500
O338        O  0.79638230  0.10276119  0.50000901    -0.78700
C339        C  0.76984405  0.09998817  0.48996862     1.01900
O340        O  0.77980354  0.18836758  0.46455763    -0.86000
O341        O  0.75027948  0.21087439  0.51603258    -0.83100
C342        C  0.76842735  0.22829749  0.53105191     0.97500
O343        O  0.79327856  0.21785535  0.54113474    -0.83100
O344        O  0.84170609  0.17942225  0.55045123    -0.85700
C345        C  0.85811004  0.18274431  0.52671877     1.02000
O346        O  0.84891835  0.17426688  0.50098815    -0.78500
O347        O  0.81005005  0.14998676  0.45802969    -0.78700
C348        C  0.80336814  0.17722180  0.45200202     1.01900
Cr349      Cr  0.75650040  0.16730461  0.49818147     1.93700
Cr350      Cr  0.79632376  0.17531691  0.55471381     1.93200
Cr351      Cr  0.82104377  0.13916706  0.50043849     1.39100
O352        O  0.79111486  0.16083618  0.51765496    -1.23700
O353        O  0.03912688  0.28941434  0.59636344    -0.86000
O354        O  0.98666510  0.30689483  0.62204311    -0.83000
C355        C  0.95957534  0.30304279  0.63100794     0.97500
O356        O  0.95340872  0.28126216  0.64907482    -0.83100
O357        O  0.95292113  0.23640024  0.60654097    -0.85700
C358        C  0.96194413  0.21721891  0.58717218     1.02000
O359        O  0.98664556  0.20271499  0.59112917    -0.78500
O360        O  0.02207625  0.24827097  0.57346105    -0.78700
C361        C  0.02945924  0.27585146  0.57224049     1.01900
O362        O  0.05743146  0.26301105  0.65962610    -0.86000
O363        O  0.00378877  0.28726743  0.68404534    -0.83100
C364        C  0.99228884  0.26645840  0.70130666     0.97500
O365        O  0.98490225  0.24111575  0.68986573    -0.83100
O366        O  0.97823278  0.19363088  0.64962761    -0.85700
C367        C  0.00306475  0.17870950  0.65041031     1.02000
O368        O  0.02756111  0.19022785  0.64094643    -0.78500
O369        O  0.06609005  0.23492604  0.62001852    -0.78700
C370        C  0.07133924  0.24057452  0.64771104     1.01900
Cr371      Cr  0.02164837  0.28431860  0.64006342     1.93700
Cr372      Cr  0.96983273  0.23859482  0.64775114     1.93200
Cr373      Cr  0.02471165  0.22099724  0.60824908     1.39100
O374        O  0.00548776  0.24805334  0.63214819    -1.23700
O375        O  0.92168091  0.01045561  0.75342842    -0.86000
O376        O  0.89680251  0.06292231  0.77364288    -0.83000
C377        C  0.88944893  0.09064883  0.77046832     0.97500
O378        O  0.87475568  0.09933205  0.74722535    -0.83100
O379        O  0.91507680  0.09474058  0.69985084    -0.85700
C380        C  0.93184942  0.08400443  0.67905726     1.02000
O381        O  0.92329679  0.06064551  0.66450647    -0.78500
O382        O  0.94214549  0.02572974  0.71002519    -0.78700
C383        C  0.94529687  0.01850641  0.73750214     1.01900
O384        O  0.85551169  0.99339624  0.72953016    -0.86000
O385        O  0.83411992  0.04757696  0.75492338    -0.83100
C386        C  0.81754236  0.06183190  0.73535991     0.97500
O387        O  0.82933010  0.07133656  0.71077050    -0.83100
O388        O  0.86609295  0.07188368  0.66109795    -0.85700
C389        C  0.85977179  0.04620481  0.64924179     1.02000
O390        O  0.87022172  0.02188725  0.65981306    -0.78500
O391        O  0.89473800  0.98327586  0.70196766    -0.78700
C392        C  0.86706498  0.97834853  0.70767406     1.01900
Cr393      Cr  0.87754704  0.02866006  0.75055162     1.93700
Cr394      Cr  0.87239975  0.08187689  0.70520535     1.93200
Cr395      Cr  0.90591185  0.02403615  0.68598583     1.39100
O396        O  0.88516652  0.04500061  0.71434133    -1.23700
O397        O  0.64813100  0.05019942  0.73556399    -0.86000
O398        O  0.67156102  0.09923635  0.76469349    -0.83000
C399        C  0.69083031  0.10659054  0.74390460     0.97500
O400        O  0.68229383  0.12388805  0.72241073    -0.83100
O401        O  0.64719010  0.14379358  0.67460865    -0.85700
C402        C  0.65149106  0.12227681  0.65616446     1.02000
O403        O  0.64085080  0.09616501  0.66228396    -0.78500
O404        O  0.61694434  0.04873286  0.69645399    -0.78700
C405        C  0.63847369  0.03719460  0.71180233     1.01900
O406        O  0.58609603  0.06404560  0.75344251    -0.86000
O407        O  0.60748898  0.11929109  0.78035311    -0.83100
C408        C  0.61860302  0.14608689  0.78100885     0.97500
O409        O  0.64044754  0.15260039  0.76351535    -0.83100
O410        O  0.60154042  0.16380668  0.71431883    -0.85700
C411        C  0.58631927  0.15822772  0.69042090     1.02000
O412        O  0.58788954  0.13238493  0.67738084    -0.78500
O413        O  0.56559703  0.08439061  0.71245052    -0.78700
C414        C  0.56345552  0.06684005  0.73536553     1.01900
Cr415      Cr  0.62771704  0.08510175  0.75642301     1.93700
Cr416      Cr  0.64154671  0.14307018  0.71932057     1.93200
Cr417      Cr  0.60438338  0.09169386  0.68983941     1.39100
O418        O  0.62405524  0.10644791  0.72194804    -1.23700
O419        O  0.23931300  0.89636070  0.98180158    -0.86000
O420        O  0.27483633  0.86960031  0.93870187    -0.83000
C421        C  0.25557455  0.84864673  0.93254465     0.97500
O422        O  0.23439216  0.85437575  0.91386928    -0.83100
O423        O  0.18761364  0.88518309  0.88605746    -0.85700
C424        C  0.16754758  0.88421638  0.90667546     1.02000
O425        O  0.17071498  0.89951129  0.93085283    -0.78500
O426        O  0.20093812  0.92850732  0.97769754    -0.78700
C427        C  0.21454209  0.90725344  0.99183753     1.01900
O428        O  0.25772376  0.95736895  0.96444449    -0.86000
O429        O  0.29011855  0.93150996  0.91425618    -0.83100
C430        C  0.29351921  0.91797043  0.88883384     0.97500
O431        O  0.27727358  0.89492321  0.88301233    -0.83100
O432        O  0.22824076  0.92947768  0.86311321    -0.85700
C433        C  0.20502792  0.94656369  0.86539521     1.02000
O434        O  0.18896573  0.94742385  0.88957148    -0.78500
O435        O  0.22040026  0.97558308  0.93662205    -0.78700
C436        C  0.24110336  0.97986894  0.95620885     1.01900
Cr437      Cr  0.26351910  0.91405989  0.94778371     1.93700
Cr438      Cr  0.23212184  0.89259427  0.88923577     1.93200
Cr439      Cr  0.19798972  0.93606751  0.93285441     1.39100
O440        O  0.23119412  0.91472092  0.92327281    -1.23700
O441        O  0.49030678  0.29941895  0.13342546    -0.86000
O442        O  0.44639250  0.26561880  0.16058340    -0.83000
C443        C  0.43884298  0.28470067  0.18128757     0.97500
O444        O  0.42215654  0.30725074  0.17447239    -0.83100
O445        O  0.39783502  0.35572622  0.14223411    -0.85700
C446        C  0.41951118  0.37477633  0.14179178     1.02000
O447        O  0.44376598  0.36861828  0.12746328    -0.78500
O448        O  0.48835078  0.33525563  0.09848508    -0.78700
C449        C  0.50100887  0.32350095  0.12165766     1.01900
O450        O  0.47340009  0.27979606  0.07228319    -0.86000
O451        O  0.42184411  0.24959611  0.09957086    -0.83100
C452        C  0.39622100  0.24749813  0.11326806     0.97500
O453        O  0.39024034  0.26531650  0.13517049    -0.83100
O454        O  0.37285894  0.31400574  0.09946259    -0.85700
C455        C  0.37541059  0.33751110  0.08295353     1.02000
O456        O  0.40041859  0.35210059  0.08116584    -0.78500
O457        O  0.44491962  0.31626158  0.05363528    -0.78700
C458        C  0.46496924  0.29596665  0.04945611     1.01900
Cr459      Cr  0.45611387  0.27556868  0.11596730     1.93700
Cr460      Cr  0.39850229  0.31023129  0.13627330     1.93200
Cr461      Cr  0.44348817  0.34053138  0.09179183     1.39100
O462        O  0.43263132  0.30868551  0.11432835    -1.23700
O463        O  0.55242577  0.26311500  0.85579330    -0.86000
O464        O  0.50184931  0.27273307  0.81922523    -0.83000
C465        C  0.47536084  0.26633639  0.80945247     0.97500
O466        O  0.45479412  0.25885405  0.82837842    -0.83100
O467        O  0.47404984  0.20239322  0.84795998    -0.85700
C468        C  0.48763488  0.18141740  0.86231818     1.02000
O469        O  0.49669372  0.18564190  0.88949861    -0.78500
O470        O  0.54602532  0.21654020  0.87434146    -0.78700
C471        C  0.55987685  0.23468760  0.85709649     1.01900
O472        O  0.51657357  0.29873486  0.90655938    -0.86000
O473        O  0.47040940  0.30705389  0.86821627    -0.83100
C474        C  0.44697848  0.30037708  0.88444587     0.97500
O475        O  0.44036389  0.27291282  0.89004253    -0.83100
O476        O  0.44956733  0.21443996  0.90775104    -0.85700
C477        C  0.45991807  0.22010065  0.93408760     1.02000
O478        O  0.48589623  0.23107798  0.93733590    -0.78500
O479        O  0.53904314  0.25838568  0.92294037    -0.78700
C480        C  0.52528771  0.28284241  0.92899103     1.01900
Cr481      Cr  0.51019441  0.28311605  0.86359750     1.93700
Cr482      Cr  0.45734244  0.23780889  0.86905215     1.93200
Cr483      Cr  0.51543581  0.22481306  0.90443508     1.39100
O484        O  0.49464653  0.24867845  0.87850491    -1.23700
O485        O  0.37213913  0.98156801  0.77220928    -0.86000
O486        O  0.33409217  0.02964289  0.75405495    -0.83000
C487        C  0.32379337  0.05689242  0.75428478     0.97500
O488        O  0.34278934  0.07857361  0.75559984    -0.83100
O489        O  0.35801221  0.07157361  0.81623195    -0.85700
C490        C  0.37100243  0.06133686  0.83984683     1.02000
O491        O  0.39846159  0.05216944  0.83868265    -0.78500
O492        O  0.38611267  0.99721478  0.81786267    -0.78700
C493        C  0.37167300  0.97890537  0.80148523     1.01900
O494        O  0.42343967  0.01225598  0.73326214    -0.86000
O495        O  0.38327646  0.05530927  0.71476424    -0.83100
C496        C  0.39943057  0.07953684  0.71702197     0.97500
O497        O  0.40559009  0.09068503  0.74276751    -0.83100
O498        O  0.41814215  0.09421279  0.80338955    -0.85700
C499        C  0.44478489  0.08310832  0.80317553     1.02000
O500        O  0.44906592  0.05581264  0.79621661    -0.78500
O501        O  0.43708484  0.99746946  0.77800271    -0.78700
C502        C  0.44482670  0.00603810  0.75165826     1.01900
Cr503      Cr  0.37917061  0.02027867  0.74559815     1.93700
Cr504      Cr  0.38175571  0.08105773  0.77934908     1.93200
Cr505      Cr  0.41626008  0.02673332  0.80544375     1.39100
O506        O  0.39198065  0.04233710  0.77682328    -1.23700
O507        O  0.28035638  0.17146896  0.04922574    -0.86000
O508        O  0.26617697  0.21300087  0.00305019    -0.83000
C509        C  0.26873272  0.22521387  0.97675358     0.97500
O510        O  0.27778754  0.20894009  0.95482968    -0.83100
O511        O  0.33637369  0.19066471  0.97078153    -0.85700
C512        C  0.35784937  0.17499630  0.98188799     1.02000
O513        O  0.35418835  0.14665831  0.98727292    -0.78500
O514        O  0.32580719  0.15181214  0.03953914    -0.78700
C515        C  0.30895849  0.16858364  0.05541197     1.01900
O516        O  0.24368356  0.12321363  0.00955659    -0.86000
O517        O  0.23281080  0.16653795  0.96898927    -0.83100
C518        C  0.23934168  0.15502083  0.94302616     0.97500
O519        O  0.26646852  0.14954710  0.93500772    -0.83100
O520        O  0.32620768  0.13440432  0.93909372    -0.85700
C521        C  0.32066425  0.10675653  0.94509119     1.02000
O522        O  0.30983713  0.09927675  0.97043948    -0.78500
O523        O  0.28515011  0.10350245  0.02695062    -0.78700
C524        C  0.25943306  0.09964442  0.01509623     1.01900
Cr525      Cr  0.25811178  0.16735090  0.00762058     1.93700
Cr526      Cr  0.30124711  0.17001921  0.95269866     1.93200
Cr527      Cr  0.31670456  0.12712814  0.00480005     1.39100
O528        O  0.29193609  0.15542531  0.98893072    -1.23700
O529        O  0.01955140  0.75820081  0.61275453    -0.86000
O530        O  0.05561746  0.79060371  0.64970291    -0.83000
C531        C  0.07208481  0.78505799  0.67251006     0.97500
O532        O  0.09724458  0.77106598  0.66915188    -0.83100
O533        O  0.09866784  0.71013135  0.65832471    -0.85700
C534        C  0.09734520  0.68439677  0.64585035     1.02000
O535        O  0.09164400  0.68258513  0.61790143    -0.78500
O536        O  0.03539986  0.71036768  0.61963238    -0.78700
C537        C  0.01636130  0.73152969  0.62442457     1.01900
O538        O  0.05736780  0.77817919  0.55983519    -0.86000
O539        O  0.09648244  0.80900835  0.59889542    -0.83100
C540        C  0.12510237  0.80429731  0.60213561     0.97500
O541        O  0.13465554  0.78024844  0.61474679    -0.83100
O542        O  0.13740057  0.71910658  0.60438469    -0.85700
C543        C  0.13187442  0.71113722  0.57691101     1.02000
O544        O  0.10577711  0.71503464  0.56495904    -0.78500
O545        O  0.04324811  0.73071398  0.55928170    -0.78700
C546        C  0.04415508  0.75640150  0.54650166     1.01900
Cr547      Cr  0.05940279  0.78131810  0.60552810     1.93700
Cr548      Cr  0.11420615  0.74559701  0.63460006     1.93200
Cr549      Cr  0.06993042  0.71304921  0.59186223     1.39100
O550        O  0.08147836  0.74730797  0.61054282    -1.23700
O551        O  0.89548850  0.02316464  0.22644150    -0.86000
O552        O  0.85131653  0.98999706  0.25381827    -0.83000
C553        C  0.83051400  0.97016257  0.25220685     0.97500
O554        O  0.83815626  0.94251193  0.24832057    -0.83100
O555        O  0.84705946  0.94159380  0.18736724    -0.85700
C556        C  0.85807129  0.94255665  0.16092746     1.02000
O557        O  0.88657811  0.94616830  0.15759916    -0.78500
O558        O  0.89088677  0.00408544  0.17990492    -0.78700
C559        C  0.88938320  0.02624188  0.19816720     1.01900
O560        O  0.94309733  0.98633676  0.25368520    -0.86000
O561        O  0.89940291  0.94950236  0.28385372    -0.83100
C562        C  0.90210275  0.92057930  0.27985213     0.97500
O563        O  0.89426349  0.90820706  0.25521750    -0.83100
O564        O  0.90029408  0.90156962  0.19377152    -0.85700
C565        C  0.92862347  0.90522414  0.18810520     1.02000
O566        O  0.94092481  0.93107453  0.19132209    -0.78500
O567        O  0.94892245  0.99304974  0.20454040    -0.78700
C568        C  0.95886120  0.99637865  0.23137211     1.01900
Cr569      Cr  0.89700458  0.98477579  0.25244857     1.93700
Cr570      Cr  0.87186164  0.92622358  0.22126977     1.93200
Cr571      Cr  0.91539255  0.96778706  0.18633423     1.39100
O572        O  0.89525699  0.95951336  0.22062223    -1.23700
O573        O  0.28813139  0.14337171  0.48243453    -0.86000
O574        O  0.25939707  0.18554937  0.44876853    -0.83000
C575        C  0.26721032  0.20753214  0.43186689     0.97500
O576        O  0.27834045  0.20276568  0.40558229    -0.83100
O577        O  0.33699436  0.18588296  0.40128740    -0.85700
C578        C  0.36176123  0.17163049  0.40188676     1.02000
O579        O  0.36175085  0.14347606  0.40748162    -0.78500
O580        O  0.33616820  0.14508270  0.46555578    -0.78700
C581        C  0.31617673  0.15050742  0.48581049     1.01900
O582        O  0.26142055  0.09446629  0.44489789    -0.86000
O583        O  0.23374245  0.13779474  0.40801875    -0.83100
C584        C  0.23761816  0.13996781  0.37917899     0.97500
O585        O  0.26224692  0.14998642  0.36818567    -0.83100
O586        O  0.32185364  0.13455826  0.36262061    -0.85700
C587        C  0.32564597  0.10604214  0.36687821     1.02000
O588        O  0.32310923  0.09400819  0.39314925    -0.78500
O589        O  0.30934760  0.08770141  0.45572858    -0.78700
C590        C  0.28235582  0.07801605  0.45600478     1.01900
Cr591      Cr  0.26327111  0.14037523  0.44367965     1.93700
Cr592      Cr  0.29928333  0.16623533  0.38727852     1.93200
Cr593      Cr  0.32940798  0.11949758  0.42965191     1.39100
O594        O  0.29674847  0.14204490  0.42008097    -1.23700
O595        O  0.24303484  0.87382450  0.53981323    -0.86000
O596        O  0.26792547  0.85043544  0.48632844    -0.83000
C597        C  0.24815938  0.83114662  0.47705986     0.97500
O598        O  0.22175652  0.83988145  0.46980064    -0.83100
O599        O  0.17089136  0.87589854  0.46338914    -0.85700
C600        C  0.15682881  0.87600453  0.48879963     1.02000
O601        O  0.16874255  0.88723763  0.51219116    -0.78500
O602        O  0.21382255  0.91265323  0.54756350    -0.78700
C603        C  0.22042332  0.88532957  0.55379344     1.01900
O604        O  0.26402609  0.93804401  0.51914106    -0.86000
O605        O  0.28173975  0.91263101  0.46604487    -0.83100
C606        C  0.27805201  0.90244036  0.43934610     0.97500
O607        O  0.25743574  0.88271958  0.43459061    -0.83100
O608        O  0.20890747  0.92105044  0.43434235    -0.85700
C609        C  0.18882612  0.93939104  0.44368953     1.02000
O610        O  0.17568112  0.93533665  0.46907996    -0.78500
O611        O  0.22184899  0.95783448  0.50081496    -0.78700
C612        C  0.24912000  0.96098828  0.50858148     1.01900
Cr613      Cr  0.26188807  0.89403988  0.50268204     1.93700
Cr614      Cr  0.21526407  0.88096469  0.45288124     1.93200
Cr615      Cr  0.19697571  0.92160052  0.50661111     1.39100
O616        O  0.22475297  0.89872878  0.48738055    -1.23700
O617        O  0.97068743  0.80321861  0.34220466    -0.86000
O618        O  0.02481898  0.77785180  0.32230129    -0.83000
C619        C  0.04165930  0.79670432  0.30759556     0.97500
O620        O  0.05160144  0.82035929  0.32054447    -0.83100
O621        O  0.04785340  0.86945704  0.35819937    -0.85700
C622        C  0.02236660  0.88150110  0.35129436     1.02000
O623        O  0.99776871  0.87216744  0.36272854    -0.78500
O624        O  0.95796808  0.82796086  0.38267734    -0.78700
C625        C  0.95460005  0.82379893  0.35449834     1.01900
O626        O  0.98344434  0.77534999  0.40658810    -0.86000
O627        O  0.03676104  0.75541446  0.38385658    -0.83100
C628        C  0.06511687  0.75965776  0.38078689     0.97500
O629        O  0.07530537  0.78360622  0.36828810    -0.83100
O630        O  0.06814546  0.82942328  0.40785268    -0.85700
C631        C  0.05717056  0.84952667  0.42506136     1.02000
O632        O  0.03374522  0.86416417  0.41680337    -0.78500
O633        O  0.99884252  0.81622029  0.43153430    -0.78700
C634        C  0.99143321  0.78856965  0.43153819     1.01900
Cr635      Cr  0.00410320  0.78040920  0.36439751     1.93700
Cr636      Cr  0.05796943  0.82534002  0.36461002     1.93200
Cr637      Cr  0.99833437  0.84321799  0.39670933     1.39100
O638        O  0.02029600  0.81602649  0.37488156    -1.23700
O639        O  0.15192533  0.07679087  0.26934352    -0.86000
O640        O  0.18912382  0.02720149  0.25397450    -0.83000
C641        C  0.19849882  0.99978811  0.25693322     0.97500
O642        O  0.17908743  0.97892479  0.26120316    -0.83100
O643        O  0.16020590  0.99053003  0.32063286    -0.85700
C644        C  0.14492198  0.00035203  0.34313484     1.02000
O645        O  0.11849831  0.01140856  0.33943243    -0.78500
O646        O  0.13523397  0.06463092  0.31549285    -0.78700
C647        C  0.15178069  0.08076737  0.29843473     1.01900
O648        O  0.10087367  0.04577615  0.23081430    -0.86000
O649        O  0.14016852  0.00099217  0.21632444    -0.83100
C650        C  0.12376786  0.97716196  0.21993932     0.97500
O651        O  0.11741713  0.96713390  0.24616596    -0.83100
O652        O  0.10085210  0.96847842  0.30533321    -0.85700
C653        C  0.07453117  0.97922100  0.30063588     1.02000
O654        O  0.07103840  0.00689937  0.29429597    -0.78500
O655        O  0.08607547  0.06400376  0.27383176    -0.78700
C656        C  0.07903277  0.05380369  0.24803912     1.01900
Cr657      Cr  0.14440313  0.03730411  0.24481278     1.93700
Cr658      Cr  0.13898175  0.97910472  0.28302766     1.93200
Cr659      Cr  0.10429109  0.03557210  0.30369751     1.39100
O660        O  0.12976849  0.01765013  0.27718689    -1.23700
O661        O  0.07412754  0.77237665  0.16057456    -0.86000
O662        O  0.02652269  0.80306818  0.13747525    -0.83000
C663        C  0.01358030  0.82669028  0.12738075     0.97500
O664        O  0.02309574  0.83964951  0.10329607    -0.83100
O665        O  0.06922884  0.87473016  0.12702867    -0.85700
C666        C  0.09476773  0.88210859  0.13788210     1.02000
O667        O  0.11696896  0.86387701  0.13645498    -0.78500
O668        O  0.09755054  0.81508580  0.17220297    -0.78700
C669        C  0.08228255  0.79192125  0.18046250     1.01900
O670        O  0.09436941  0.75674072  0.09823692    -0.86000
O671        O  0.04004009  0.78336517  0.07492033    -0.83100
C672        C  0.04512658  0.79977630  0.05127283     0.97500
O673        O  0.06244253  0.82269722  0.05349547    -0.83100
O674        O  0.10799392  0.85965787  0.07621058    -0.85700
C675        C  0.13409655  0.84690662  0.07564014     1.02000
O676        O  0.13955072  0.82367230  0.09204713    -0.78500
O677        O  0.12775243  0.77421068  0.13075654    -0.78700
C678        C  0.12068512  0.75528859  0.11030946     1.01900
Cr679      Cr  0.06038484  0.78110777  0.11705876     1.93700
Cr680      Cr  0.06687349  0.84660490  0.09161520     1.93200
Cr681      Cr  0.11753874  0.81869284  0.13149345     1.39100
O682        O  0.08165895  0.81536389  0.11291080    -1.23700
O683        O  0.25158881  0.37477955  0.96132529    -0.86000
O684        O  0.27608327  0.41485379  0.99949818    -0.83000
C685        C  0.30254988  0.40364506  0.00418175     0.97500
O686        O  0.32455636  0.40840439  0.98613243    -0.83100
O687        O  0.35562538  0.41111056  0.93142917    -0.85700
C688        C  0.35332568  0.38308067  0.92538893     1.02000
O689        O  0.32737283  0.37167351  0.92199393    -0.78500
O690        O  0.26725303  0.36176882  0.91579937    -0.78700
C691        C  0.25719140  0.35430162  0.94193988     1.01900
O692        O  0.22929576  0.42469343  0.91979443    -0.86000
O693        O  0.25542374  0.46611605  0.96119786    -0.83100
C694        C  0.27587752  0.48044876  0.97570704     0.97500
O695        O  0.30207986  0.46856170  0.97796633    -0.83100
O696        O  0.32371247  0.46548052  0.91747850    -0.85700
C697        C  0.33020210  0.45502287  0.89127947     1.02000
O698        O  0.32386997  0.42745837  0.88426817    -0.78500
O699        O  0.26278518  0.41874218  0.88256009    -0.78700
C700        C  0.23673494  0.42670675  0.89151368     1.01900
Cr701      Cr  0.25548393  0.42013703  0.95840525     1.93700
Cr702      Cr  0.32359740  0.43711359  0.95222315     1.93200
Cr703      Cr  0.29483121  0.39669644  0.90388694     1.39100
O704        O  0.29064941  0.41845728  0.93781627    -1.23700
O705        O  0.85664428  0.57837101  0.76238923    -0.86000
O706        O  0.89816029  0.54328465  0.73206774    -0.83000
C707        C  0.89375748  0.53837396  0.70351306     0.97500
O708        O  0.89841392  0.55870994  0.68342742    -0.83100
O709        O  0.89555506  0.61549584  0.65636912    -0.85700
C710        C  0.86699765  0.61842351  0.65647313     1.02000
O711        O  0.85283215  0.61880119  0.68142628    -0.78500
O712        O  0.83839291  0.61968279  0.74147672    -0.78700
C713        C  0.83406299  0.59492500  0.75562334     1.01900
O714        O  0.90592694  0.62167374  0.78289299    -0.86000
O715        O  0.94779064  0.58165637  0.75660759    -0.83100
C716        C  0.96415354  0.57065278  0.73551478     0.97500
O717        O  0.95464670  0.57204733  0.70854658    -0.83100
O718        O  0.94517278  0.63417166  0.69313526    -0.85700
C719        C  0.93174331  0.65938060  0.68820577     1.02000
O720        O  0.90295719  0.66185880  0.69180190    -0.78500
O721        O  0.89013272  0.65867353  0.75231467    -0.78700
C722        C  0.90275480  0.65018009  0.77665640     1.01900
Cr723      Cr  0.90179930  0.58346991  0.75570240     1.93700
Cr724      Cr  0.92155533  0.59606564  0.68864841     1.93200
Cr725      Cr  0.87322736  0.63690981  0.71734517     1.39100
O726        O  0.89887726  0.60545148  0.72122811    -1.23700
O727        O  0.27500465  0.62296399  0.02244377    -0.86000
O728        O  0.29821442  0.66562885  0.98347416    -0.83000
C729        C  0.29924361  0.64998843  0.95899757     0.97500
O730        O  0.27539792  0.64340874  0.94472897    -0.83100
O731        O  0.21777109  0.62685119  0.93404471    -0.85700
C732        C  0.21625382  0.60052126  0.94601386     1.02000
O733        O  0.21859836  0.59702085  0.97421265    -0.78500
O734        O  0.22877255  0.61119482  0.03385466    -0.78700
C735        C  0.25550841  0.60234631  0.02801007     1.01900
O736        O  0.23264786  0.67171186  0.05002888    -0.86000
O737        O  0.25483805  0.71192576  0.00531817    -0.83100
C738        C  0.25719972  0.72318991  0.97856445     0.97500
O739        O  0.25785799  0.70563446  0.95563357    -0.83100
O740        O  0.19790174  0.68639011  0.95261894    -0.85700
C741        C  0.17387094  0.67117712  0.95729673     1.02000
O742        O  0.17487638  0.64514881  0.96983020    -0.78500
O743        O  0.18934788  0.66228765  0.02661854    -0.78700
C744        C  0.20345334  0.67377539  0.04863019     1.01900
Cr745      Cr  0.26329779  0.66718979  0.01429666     1.93700
Cr746      Cr  0.23716961  0.66506257  0.94949182     1.93200
Cr747      Cr  0.20504214  0.63044186  0.00049337     1.39100
O748        O  0.23508134  0.65474592  0.98820762    -1.23700
O749        O  0.98871661  0.78840764  0.90678203    -0.86000
O750        O  0.03775754  0.81358047  0.87906342    -0.83000
C751        C  0.06454759  0.81193428  0.86843995     0.97500
O752        O  0.07115249  0.79223745  0.84837673    -0.83100
O753        O  0.07575323  0.74050622  0.88187854    -0.85700
C754        C  0.06958735  0.71646770  0.89635810     1.02000
O755        O  0.04433829  0.70312524  0.89265436    -0.78500
O756        O  0.01112833  0.74594449  0.92223939    -0.78700
C757        C  0.00096226  0.77215539  0.92817164     1.01900
O758        O  0.96612166  0.77024696  0.84179402    -0.86000
O759        O  0.01689021  0.80190763  0.81710051    -0.83100
C760        C  0.02968850  0.78503927  0.79682720     0.97500
O761        O  0.03796998  0.75849556  0.80358459    -0.83100
O762        O  0.04716978  0.70613377  0.83382831    -0.85700
C763        C  0.02193006  0.69222233  0.83138428     1.02000
O764        O  0.99880233  0.70059752  0.84628217    -0.78500
O765        O  0.96267133  0.73977370  0.88013538    -0.78700
C766        C  0.95385231  0.74687042  0.85381742     1.01900
Cr767      Cr  0.00250674  0.79125820  0.86124354     1.93700
Cr768      Cr  0.05569133  0.74971471  0.84332705     1.93200
Cr769      Cr  0.00497970  0.72442967  0.88384928     1.39100
O770        O  0.02126417  0.75544854  0.86288490    -1.23700
O771        O  0.10585325  0.52019345  0.73836290    -0.86000
O772        O  0.14743559  0.56284861  0.72227096    -0.83000
C773        C  0.13174036  0.58735483  0.72453786     0.97500
O774        O  0.12404334  0.59783867  0.75013123    -0.83100
O775        O  0.10810938  0.60008385  0.80957225    -0.85700
C776        C  0.08168634  0.58973597  0.80467296     1.02000
O777        O  0.07764944  0.56181402  0.80060086    -0.78500
O778        O  0.09027481  0.50410923  0.78225231    -0.78700
C779        C  0.08379326  0.51363136  0.75590811     1.01900
O780        O  0.15411299  0.48793507  0.77791320    -0.86000
O781        O  0.19366642  0.53512314  0.76272226    -0.83100
C782        C  0.20410609  0.56216846  0.76389724     0.97500
O783        O  0.18551098  0.58421282  0.76511842    -0.83100
O784        O  0.16757859  0.57669284  0.82456324    -0.85700
C785        C  0.15396429  0.56551668  0.84743375     1.02000
O786        O  0.12618924  0.55755483  0.84562149    -0.78500
O787        O  0.13948154  0.50250121  0.82399284    -0.78700
C788        C  0.15429996  0.48478805  0.80706625     1.01900
Cr789      Cr  0.14922877  0.52711537  0.75232565     1.93700
Cr790      Cr  0.14571570  0.58713179  0.78730038     1.93200
Cr791      Cr  0.10980683  0.53256882  0.81123105     1.39100
O792        O  0.13534264  0.54857973  0.78367510    -1.23700
O793        O  0.75049449  0.66395580  0.01415121    -0.86000
O794        O  0.77983597  0.68784299  0.06245684    -0.83000
C795        C  0.75988778  0.70840102  0.06817897     0.97500
O796        O  0.73816868  0.70233253  0.08629418    -0.83100
O797        O  0.68861690  0.67147631  0.10903168    -0.85700
C798        C  0.67043225  0.67626474  0.08747108     1.02000
O799        O  0.67515700  0.66401446  0.06173771    -0.78500
O800        O  0.70794520  0.63723910  0.01420962    -0.78700
C801        C  0.72615327  0.65575026  0.00133885     1.01900
O802        O  0.76372796  0.60202641  0.03109563    -0.86000
O803        O  0.79175840  0.62390397  0.08511468    -0.83100
C804        C  0.79371168  0.63622874  0.11120739     0.97500
O805        O  0.77732736  0.65917223  0.11697213    -0.83100
O806        O  0.72538993  0.62374034  0.13001987    -0.85700
C807        C  0.70079686  0.60936824  0.12470741     1.02000
O808        O  0.68770178  0.61124474  0.09892811    -0.78500
O809        O  0.72088349  0.58575769  0.05155828    -0.78700
C810        C  0.74384261  0.58104503  0.03460086     1.01900
Cr811      Cr  0.76914836  0.64411061  0.05025909     1.93700
Cr812      Cr  0.73295885  0.66270577  0.10765372     1.93200
Cr813      Cr  0.70074638  0.62598930  0.05771733     1.39100
O814        O  0.73426534  0.64377485  0.07166062    -1.23700
O815        O  0.99190225  0.25581036  0.86657553    -0.86000
O816        O  0.94818180  0.29483096  0.84521778    -0.83000
C817        C  0.94045995  0.27643926  0.82421501     0.97500
O818        O  0.92132561  0.25567982  0.83032816    -0.83100
O819        O  0.89448432  0.20812224  0.86112490    -0.85700
C820        C  0.91455894  0.18786704  0.85728123     1.02000
O821        O  0.93962337  0.18994597  0.87135632    -0.78500
O822        O  0.98918339  0.21709034  0.89866192    -0.78700
C823        C  0.00154976  0.23025612  0.87603274     1.01900
O824        O  0.97947060  0.27335743  0.92919002    -0.86000
O825        O  0.92929098  0.30741511  0.90917455    -0.83100
C826        C  0.90285742  0.31245308  0.89839156     0.97500
O827        O  0.89457346  0.29779128  0.87499506    -0.83100
O828        O  0.87524288  0.24711687  0.90860546    -0.85700
C829        C  0.87763500  0.22271773  0.92409969     1.02000
O830        O  0.90171954  0.20650245  0.92302553    -0.78500
O831        O  0.95215759  0.23636251  0.94928578    -0.78700
C832        C  0.97162644  0.25761136  0.95237338     1.01900
Cr833      Cr  0.96030685  0.28088980  0.88787567     1.93700
Cr834      Cr  0.89917652  0.25233186  0.87013988     1.93200
Cr835      Cr  0.94471830  0.21524665  0.90915996     1.39100
O836        O  0.93465896  0.24949674  0.88966472    -1.23700
O837        O  0.14898583  0.50997362  0.27126988    -0.86000
O838        O  0.17247173  0.46473785  0.23774092    -0.83000
C839        C  0.19316293  0.45647669  0.25647692     0.97500
O840        O  0.18629689  0.43876010  0.27832863    -0.83100
O841        O  0.15407431  0.41458439  0.32688369    -0.85700
C842        C  0.15758926  0.43547100  0.34624154     1.02000
O843        O  0.14502818  0.46111056  0.34179919    -0.78500
O844        O  0.11840130  0.50958748  0.31129222    -0.78700
C845        C  0.13987980  0.52149369  0.29601728     1.01900
O846        O  0.08661952  0.49570029  0.25432928    -0.86000
O847        O  0.10913788  0.44329784  0.22335230    -0.83100
C848        C  0.12128530  0.41706109  0.22066740     0.97500
O849        O  0.14371226  0.41032067  0.23736959    -0.83100
O850        O  0.10771766  0.39425147  0.28787054    -0.85700
C851        C  0.09235441  0.39820973  0.31216416     1.02000
O852        O  0.09322655  0.42338649  0.32657082    -0.78500
O853        O  0.06755649  0.47258887  0.29463580    -0.78700
C854        C  0.06408321  0.49063222  0.27218505     1.01900
Cr855      Cr  0.12876775  0.47645842  0.24884990     1.93700
Cr856      Cr  0.14642794  0.41743320  0.28226376     1.93200
Cr857      Cr  0.10753708  0.46555324  0.31575858     1.39100
O858        O  0.12694571  0.45317077  0.28221716    -1.23700
O859        O  0.85447879  0.56823112  0.22998315    -0.86000
O860        O  0.82904736  0.51409039  0.25222071    -0.83000
C861        C  0.81301752  0.50143617  0.23130934     0.97500
O862        O  0.82542287  0.49481412  0.20620013    -0.83100
O863        O  0.86494597  0.49147008  0.15893435    -0.85700
C864        C  0.85871275  0.51781957  0.14870290     1.02000
O865        O  0.87181833  0.54095621  0.15915315    -0.78500
O866        O  0.89532284  0.57716031  0.20413800    -0.78700
C867        C  0.86758095  0.58302027  0.20885018     1.01900
O868        O  0.91799003  0.54694059  0.25689850    -0.86000
O869        O  0.88914740  0.49562198  0.27272547    -0.83100
C870        C  0.88152950  0.46836246  0.26785014     0.97500
O871        O  0.86586140  0.46166769  0.24469614    -0.83100
O872        O  0.90892046  0.46458480  0.20054620    -0.85700
C873        C  0.92875118  0.47560888  0.18283601     1.02000
O874        O  0.92265566  0.49923496  0.16734990    -0.78500
O875        O  0.94111859  0.53226453  0.21458025    -0.78700
C876        C  0.94240491  0.53820430  0.24259483     1.01900
Cr877      Cr  0.87325890  0.53133722  0.25057798     1.93700
Cr878      Cr  0.86739506  0.48042843  0.20314009     1.93200
Cr879      Cr  0.90601499  0.53638577  0.18786274     1.39100
O880        O  0.88225569  0.51592572  0.21425810    -1.23700
O881        O  0.78666792  0.39010845  0.96258822    -0.86000
O882        O  0.76125389  0.35316955  0.00837855    -0.83000
C883        C  0.75683709  0.34417159  0.03574329     0.97500
O884        O  0.75425578  0.36384067  0.05682047    -0.83100
O885        O  0.81270567  0.38508586  0.06338980    -0.85700
C886        C  0.83721962  0.39902730  0.05747745     1.02000
O887        O  0.83660326  0.42498307  0.04471517    -0.78500
O888        O  0.82777346  0.40322131  0.98811879    -0.78700
C889        C  0.81558342  0.38798505  0.96716806     1.01900
O890        O  0.74039454  0.43987562  0.98284440    -0.86000
O891        O  0.71517906  0.39892937  0.02295655    -0.83100
C892        C  0.71133526  0.41560665  0.04647009     0.97500
O893        O  0.73372878  0.42601344  0.06086304    -0.83100
O894        O  0.79000439  0.44530041  0.07555344    -0.85700
C895        C  0.79125167  0.47073376  0.06177550     1.02000
O896        O  0.79218506  0.47164651  0.03319393    -0.78500
O897        O  0.78701891  0.45158697  0.97418638    -0.78700
C898        C  0.76003509  0.46055262  0.97818318     1.01900
Cr899      Cr  0.75270224  0.39673391  0.99516972     1.93700
Cr900      Cr  0.77301444  0.40542463  0.06147735     1.93200
Cr901      Cr  0.80880957  0.43651161  0.01062565     1.39100
O902        O  0.77838832  0.41227136  0.02236268    -1.23700
O903        O  0.05423509  0.29923765  0.15847659    -0.86000
O904        O  0.00375946  0.27112456  0.18687689    -0.83000
C905        C  0.99252237  0.28988916  0.20632120     0.97500
O906        O  0.98541793  0.31639823  0.19790891    -0.83100
O907        O  0.97408835  0.36614741  0.16261477    -0.85700
C908        C  0.99877747  0.38116120  0.16077146     1.02000
O909        O  0.02134156  0.37108974  0.14630362    -0.78500
O910        O  0.05697498  0.32816953  0.11854084    -0.78700
C911        C  0.06613487  0.32206975  0.14519708     1.01900
O912        O  0.03026107  0.27580402  0.09614266    -0.86000
O913        O  0.98094205  0.25555492  0.12696906    -0.83100
C914        C  0.95467231  0.25849735  0.13845413     0.97500
O915        O  0.94945621  0.27889620  0.15820795    -0.83100
O916        O  0.94324751  0.32680039  0.12029598    -0.85700
C917        C  0.94823078  0.34892648  0.10267978     1.02000
O918        O  0.97406311  0.36185561  0.10244724    -0.78500
O919        O  0.00696502  0.31629872  0.07780492    -0.78700
C920        C  0.01722805  0.28982578  0.07378717     1.01900
Cr921      Cr  0.01714175  0.27778561  0.14187974     1.93700
Cr922      Cr  0.96541113  0.32163779  0.15840013     1.93200
Cr923      Cr  0.01417217  0.34226356  0.11295807     1.39100
O924        O  0.99888674  0.31379565  0.13786602    -1.23700
O925        O  0.75258045  0.19423001  0.05521236    -0.86000
O926        O  0.77972831  0.15363904  0.01872527    -0.83000
C927        C  0.80656943  0.16452874  0.01481408     0.97500
O928        O  0.82739321  0.15998032  0.03403924    -0.83100
O929        O  0.85460264  0.15988201  0.09002624    -0.85700
C930        C  0.85177510  0.18787354  0.09637291     1.02000
O931        O  0.82548018  0.19905098  0.09814284    -0.78500
O932        O  0.76463024  0.20789821  0.10144268    -0.78700
C933        C  0.75637561  0.21502063  0.07467094     1.01900
O934        O  0.72820181  0.14511699  0.09693004    -0.86000
O935        O  0.75714699  0.10276188  0.05752330    -0.83100
C936        C  0.77831187  0.08751640  0.04472421     0.97500
O937        O  0.80477409  0.09909488  0.04343074    -0.83100
O938        O  0.82264902  0.10559605  0.10463518    -0.85700
C939        C  0.82834385  0.11705507  0.13051803     1.02000
O940        O  0.82120637  0.14458421  0.13660020    -0.78500
O941        O  0.75970436  0.15141196  0.13563991    -0.78700
C942        C  0.73405142  0.14353828  0.12563076     1.01900
Cr943      Cr  0.75667246  0.14894112  0.05918914     1.93700
Cr944      Cr  0.82433160  0.13245805  0.06889821     1.93200
Cr945      Cr  0.79238764  0.17384324  0.11513611     1.39100
O946        O  0.79052446  0.15135187  0.08133922    -1.23700
O947        O  0.34652272  0.96187197  0.23166692    -0.86000
O948        O  0.37045551  0.00753548  0.26379651    -0.83000
C949        C  0.38009440  0.01989585  0.28780474     0.97500
O950        O  0.40210537  0.00862110  0.30251810    -0.83100
O951        O  0.37301754  0.96245669  0.33503971    -0.85700
C952        C  0.35903725  0.93757409  0.33965306     1.02000
O953        O  0.36358894  0.91527545  0.32209114    -0.78500
O954        O  0.33291040  0.93642429  0.27254469    -0.78700
C955        C  0.32591413  0.95443098  0.25107864     1.01900
O956        O  0.41023944  0.93931951  0.21749349    -0.86000
O957        O  0.43312059  0.99202459  0.24735282    -0.83100
C958        C  0.45537668  0.98691438  0.26543801     0.97500
O959        O  0.45139815  0.96917497  0.28806970    -0.83100
O960        O  0.42412471  0.92294722  0.32282247    -0.85700
C961        C  0.42527904  0.89724382  0.30953167     1.02000
O962        O  0.41111556  0.89256000  0.28483601    -0.78500
O963        O  0.37671598  0.90579719  0.23311314    -0.78700
C964        C  0.39893865  0.91263819  0.21594147     1.01900
Cr965      Cr  0.39059320  0.97328817  0.24220039     1.93700
Cr966      Cr  0.41119784  0.96458266  0.30938893     1.93200
Cr967      Cr  0.37264201  0.91538239  0.27759859     1.39100
O968        O  0.39210517  0.95103078  0.27625009    -1.23700
O969        O  0.58373919  0.79495017  0.84203316    -0.86000
O970        O  0.53930332  0.76085854  0.86551893    -0.83000
C971        C  0.52755466  0.73661036  0.87539226     0.97500
O972        O  0.53886919  0.72227006  0.89773385    -0.83100
O973        O  0.58492751  0.69061661  0.86882366    -0.85700
C974        C  0.60988620  0.68540372  0.85532369     1.02000
O975        O  0.63135815  0.70451092  0.85681459    -0.78500
O976        O  0.60817466  0.75418482  0.82714843    -0.78700
C977        C  0.59009943  0.77577381  0.82090620     1.01900
O978        O  0.60577742  0.80667653  0.90635636    -0.86000
O979        O  0.55294994  0.77574241  0.92834982    -0.83100
C980        C  0.55947034  0.75785077  0.95052290     0.97500
O981        O  0.57931807  0.73732087  0.94633595    -0.83100
O982        O  0.62526384  0.70372638  0.91825108    -0.85700
C983        C  0.65134161  0.71635150  0.91745350     1.02000
O984        O  0.65543872  0.74124020  0.90315196    -0.78500
O985        O  0.63878543  0.79399380  0.87088721    -0.78700
C986        C  0.63193984  0.80967916  0.89418986     1.01900
Cr987      Cr  0.57243759  0.78267401  0.88602758     1.93700
Cr988      Cr  0.58315554  0.71615517  0.90638539     1.93200
Cr989      Cr  0.63068111  0.74904487  0.86599294     1.39100
O990        O  0.59559862  0.74931917  0.88672291    -1.23700
O991        O  0.76716896  0.94305075  0.98431758    -0.86000
O992        O  0.78511068  0.91495126  0.03458207    -0.83000
C993        C  0.78107247  0.90542814  0.06137287     0.97500
O994        O  0.75950078  0.88731049  0.06763864    -0.83100
O995        O  0.71051430  0.92513063  0.06543774    -0.85700
C996        C  0.68958142  0.94216665  0.05552170     1.02000
O997        O  0.67659490  0.93607004  0.03058731    -0.78500
O998        O  0.72229751  0.96017464  0.99890379    -0.78700
C999        C  0.75012938  0.96510634  0.99410396     1.01900
O1000       O  0.74799149  0.87744366  0.96090219    -0.86000
O1001       O  0.77118484  0.85287948  0.01372117    -0.83100
C1002       C  0.75164751  0.83383975  0.02457924     0.97500
O1003       O  0.72588935  0.84314169  0.03356007    -0.83100
O1004       O  0.67474056  0.87767708  0.03761363    -0.85700
C1005       C  0.66209621  0.87424237  0.01186760     1.02000
O1006       O  0.67288268  0.88655633  0.98816713    -0.78500
O1007       O  0.71712264  0.91475828  0.95255307    -0.78700
C1008       C  0.72548281  0.88798618  0.94640247     1.01900
Cr1009     Cr  0.76538189  0.89741647  0.99837694     1.93700
Cr1010     Cr  0.71825104  0.88451913  0.04861242     1.93200
Cr1011     Cr  0.69931317  0.92269552  0.99342706     1.39100
O1012       O  0.72787464  0.90135052  0.01345820    -1.23700
O1013       O  0.49122780  0.76757131  0.09162496    -0.86000
O1014       O  0.54182162  0.74846740  0.11916971    -0.83000
C1015       C  0.56904617  0.75170704  0.12770711     0.97500
O1016       O  0.57584602  0.77387695  0.14488750    -0.83100
O1017       O  0.57762494  0.81811015  0.10111635    -0.85700
C1018       C  0.56883588  0.83691865  0.08118263     1.02000
O1019       O  0.54508666  0.85284191  0.08604713    -0.78500
O1020       O  0.50857217  0.80874875  0.06834087    -0.78700
C1021       C  0.50139767  0.78116180  0.06743114     1.01900
O1022       O  0.47140023  0.79548132  0.15467424    -0.86000
O1023       O  0.52391812  0.77010851  0.18055618    -0.83100
C1024       C  0.53710635  0.79047424  0.19698591     0.97500
O1025       O  0.54495652  0.81540775  0.18473363    -0.83100
O1026       O  0.55275612  0.86200831  0.14372249    -0.85700
C1027       C  0.52770699  0.87642866  0.14582879     1.02000
O1028       O  0.50330047  0.86504984  0.13651994    -0.78500
O1029       O  0.46403272  0.82266239  0.11417936    -0.78700
C1030       C  0.45753602  0.81737971  0.14176352     1.01900
Cr1031     Cr  0.50716215  0.77266538  0.13601797     1.93700
Cr1032     Cr  0.56040403  0.81691183  0.14257444     1.93200
Cr1033     Cr  0.50616275  0.83546446  0.10318972     1.39100
O1034       O  0.52458617  0.80805853  0.12725125    -1.23700
O1035       O  0.59812524  0.03859656  0.26785019    -0.86000
O1036       O  0.63939228  0.99477144  0.27800800    -0.83000
C1037       C  0.62445219  0.97062780  0.27140527     0.97500
O1038       O  0.61946413  0.96360622  0.24395113    -0.83100
O1039       O  0.60602690  0.97168156  0.18348312    -0.85700
C1040       C  0.57882463  0.98085945  0.18652711     1.02000
O1041       O  0.57329274  0.00627015  0.19819425    -0.78500
O1042       O  0.58241449  0.06029044  0.22667991    -0.78700
C1043       C  0.57598368  0.04669197  0.25123960     1.01900
O1044       O  0.64827693  0.07753911  0.23506499    -0.86000
O1045       O  0.68781975  0.02859178  0.24562408    -0.83100
C1046       C  0.69900920  0.00204551  0.24150792     0.97500
O1047       O  0.68127202  0.98092967  0.23317577    -0.83100
O1048       O  0.66464794  0.99885825  0.17475180    -0.85700
C1049       C  0.65004768  0.01009248  0.15254289     1.02000
O1050       O  0.62309709  0.02023899  0.15619074    -0.78500
O1051       O  0.63336911  0.07084622  0.18743617    -0.78700
C1052       C  0.64838520  0.08544777  0.20675506     1.01900
Cr1053     Cr  0.64236472  0.03472755  0.25427165     1.93700
Cr1054     Cr  0.64213885  0.98152470  0.20951831     1.93200
Cr1055     Cr  0.60469994  0.03807688  0.19416928     1.39100
O1056       O  0.63023346  0.01851262  0.21933343    -1.23700
C1057       C  0.54169013  0.92813343  0.13318953    -0.27000
C1058       C  0.52850891  0.90823984  0.15444382    -0.15000
C1059       C  0.52368980  0.91735030  0.18487548     0.35600
C1060       C  0.53619661  0.94522748  0.19449135    -0.26400
C1061       C  0.55440900  0.96224703  0.17427354    -0.15700
C1062       C  0.55529466  0.95496578  0.14308401     0.36700
N1063       N  0.57262185  0.97318920  0.12204218    -0.89900
H1064       H  0.54479472  0.92106231  0.10960412     0.17800
H1065       H  0.53463330  0.95187840  0.21824236     0.17800
N1066       N  0.50895440  0.89705886  0.20622963    -0.88900
H1067       H  0.55798385  0.98036459  0.10459008     0.35200
H1068       H  0.58939546  0.95917685  0.11226503     0.40300
H1069       H  0.48633493  0.89429817  0.19909702     0.39900
H1070       H  0.50803402  0.90699372  0.22794706     0.34800
C1071       C  0.58368343  0.86795768  0.03568820    -0.27000
C1072       C  0.58729844  0.84121715  0.05317920    -0.15000
C1073       C  0.61065674  0.82027747  0.04520766     0.35600
C1074       C  0.63303929  0.82905446  0.02411037    -0.26400
C1075       C  0.63280381  0.85858902  0.01184249    -0.15700
C1076       C  0.60647597  0.87683811  0.01480183     0.36700
N1077       N  0.60519505  0.90618394  0.99997463    -0.89900
H1078       H  0.56486844  0.88338845  0.04045101     0.17800
H1079       H  0.65307379  0.81469092  0.02116062     0.17800
N1080       N  0.61312550  0.79112110  0.06006415    -0.88900
H1081       H  0.58471685  0.91735379  0.00534751     0.35200
H1082       H  0.60494459  0.90229365  0.97639225     0.40300
H1083       H  0.63431712  0.79010666  0.07102073     0.39900
H1084       H  0.61282629  0.77416188  0.04327611     0.34800
C1085       C  0.64174830  0.99943711  0.09821685    -0.27000
C1086       C  0.66240102  0.00599942  0.12172935    -0.15000
C1087       C  0.69359328  0.99947468  0.11769904     0.35600
C1088       C  0.70253088  0.98101136  0.09340556    -0.26400
C1089       C  0.68053045  0.96861101  0.07374166    -0.15700
C1090       C  0.65019495  0.97970017  0.07470402     0.36700
N1091       N  0.62694425  0.96922489  0.05425949    -0.89900
H1092       H  0.61801731  0.00615826  0.10025063     0.17800
H1093       H  0.72632226  0.97418710  0.09160684     0.17800
N1094       N  0.71573093  0.00945322  0.13957917    -0.88900
H1095       H  0.62486217  0.94548539  0.05644871     0.35200
H1096       H  0.63346611  0.97464464  0.03187400     0.40300
H1097       H  0.72634900  0.99010206  0.14880556     0.39900
H1098       H  0.73235399  0.02222454  0.12797458     0.34800
C1099       C  0.66323689  0.85779218  0.89279786    -0.27000
C1100       C  0.65550171  0.83024648  0.90748623    -0.15000
C1101       C  0.67280614  0.82071395  0.93295193     0.35600
C1102       C  0.69746743  0.83876202  0.94306570    -0.26400
C1103       C  0.70458516  0.86707360  0.92927361    -0.15700
C1104       C  0.68725718  0.87647353  0.90346477     0.36700
N1105       N  0.69343209  0.90453040  0.88734225    -0.89900
H1106       H  0.65047562  0.86488673  0.87280079     0.17800
H1107       H  0.71001212  0.83153864  0.96316860     0.17800
N1108       N  0.66530200  0.79263607  0.94845197    -0.88900
H1109       H  0.69856561  0.89887545  0.86466734     0.35200
H1110       H  0.71297067  0.91524971  0.89570094     0.40300
H1111       H  0.64362053  0.79528473  0.95826803     0.39900
H1112       H  0.68040831  0.78861942  0.96649887     0.34800
C1113       C  0.51488684  0.77689082  0.98236397    -0.27000
C1114       C  0.54218156  0.75974455  0.98073952    -0.15000
C1115       C  0.55128966  0.74399816  0.00786826     0.35600
C1116       C  0.53473757  0.74774935  0.03546106    -0.26400
C1117       C  0.50849157  0.76623679  0.03737084    -0.15700
C1118       C  0.49830148  0.78025259  0.01004602     0.36700
N1119       N  0.47185209  0.79958268  0.01077331    -0.89900
H1120       H  0.50657213  0.78851089  0.96211701     0.17800
H1121       H  0.54423433  0.73833463  0.05620152     0.17800
N1122       N  0.57799005  0.72502994  0.00878332    -0.88900
H1123       H  0.45607834  0.79106735  0.99504535     0.35200
H1124       H  0.47839481  0.82143870  0.00351940     0.40300
H1125       H  0.59691234  0.73794267  0.00189024     0.39900
H1126       H  0.57499566  0.70670528  0.99379278     0.34800
C1127       C  0.41791964  0.85919059  0.20827541    -0.27000
C1128       C  0.41189773  0.88819818  0.19554841    -0.15000
C1129       C  0.41769474  0.89260371  0.16408315     0.35600
C1130       C  0.43058638  0.86849385  0.14652739    -0.26400
C1131       C  0.43819035  0.83983899  0.15967503    -0.15700
C1132       C  0.43111787  0.83534442  0.19094712     0.36700
N1133       N  0.43778902  0.80676402  0.20556009    -0.89900
H1134       H  0.41314601  0.85518261  0.23229808     0.17800
H1135       H  0.43573872  0.87259159  0.12261225     0.17800
N1136       N  0.41035655  0.92141552  0.15001717    -0.88900
H1137       H  0.41741006  0.79804437  0.21461863     0.35200
H1138       H  0.45267192  0.81097483  0.22372537     0.40300
H1139       H  0.38663842  0.92424780  0.15140414     0.39900
H1140       H  0.41590242  0.92103710  0.12673803     0.34800
C1141       C  0.50681466  0.00385944  0.28611177    -0.27000
C1142       C  0.48585040  0.00339247  0.26155407    -0.15000
C1143       C  0.49409753  0.02013637  0.23482318     0.35600
C1144       C  0.52223643  0.03586022  0.23319818    -0.26400
C1145       C  0.54366838  0.03534361  0.25724816    -0.15700
C1146       C  0.53522842  0.01957885  0.28436392     0.36700
N1147       N  0.55573619  0.01898351  0.30995597    -0.89900
H1148       H  0.50103274  0.99187629  0.30706014     0.17800
H1149       H  0.52791773  0.04754912  0.21204200     0.17800
N1150       N  0.47495901  0.02102205  0.20834740    -0.88900
H1151       H  0.54655039  0.00605438  0.32791440     0.35200
H1152       H  0.55773884  0.04140812  0.31797635     0.40300
H1153       H  0.45437162  0.03177513  0.21403275     0.39900
H1154       H  0.47070045  0.99859581  0.20129211     0.34800
C1155       C  0.70038195  0.10467823  0.19703643    -0.27000
C1156       C  0.66897585  0.10921266  0.19350512    -0.15000
C1157       C  0.65903563  0.12818612  0.16892075     0.35600
C1158       C  0.68012500  0.13910143  0.14691487    -0.26400
C1159       C  0.71139119  0.13218131  0.14904298    -0.15700
C1160       C  0.72145436  0.11580569  0.17528128     0.36700
N1161       N  0.75316779  0.10907320  0.17942331    -0.89900
H1162       H  0.70856157  0.08995602  0.21526163     0.17800
H1163       H  0.67197907  0.15295609  0.12804180     0.17800
N1164       N  0.62755003  0.13670887  0.16576162    -0.88900
H1165       H  0.75951388  0.11803195  0.20060226     0.35200
H1166       H  0.75578366  0.08530321  0.18040737     0.40300
H1167       H  0.62046891  0.14706721  0.18614178     0.39900
H1168       H  0.61430163  0.11721076  0.16228182     0.34800
C1169       C  0.79587164  0.03478982  0.02517409    -0.27000
C1170       C  0.77216952  0.05651910  0.03001142    -0.15000
C1171       C  0.74273580  0.04853164  0.01967496     0.35600
C1172       C  0.73748607  0.02002903  0.00554827    -0.26400
C1173       C  0.76053269  0.99748483  0.00196411    -0.15700
C1174       C  0.79022302  0.00543129  0.01193650     0.36700
N1175       N  0.81444712  0.98349557  0.00993796    -0.89900
H1176       H  0.81881721  0.04015727  0.03267340     0.17800
H1177       H  0.71432454  0.01511535  0.99837857     0.17800
N1178       N  0.71768304  0.06932818  0.02342114    -0.88900
H1179       H  0.83212307  0.99313865  0.99695675     0.35200
H1180       H  0.82271032  0.97958841  0.03201996     0.40300
H1181       H  0.70079533  0.05838001  0.03644401     0.39900
H1182       H  0.70861565  0.07402454  0.00182431     0.34800
C1183       C  0.90083603  0.25392737  0.12328087    -0.27000
C1184       C  0.92911167  0.23954974  0.12769703    -0.15000
C1185       C  0.93255185  0.20839532  0.12026842     0.35600
C1186       C  0.90727845  0.19213971  0.10892564    -0.26400
C1187       C  0.87873141  0.20650086  0.10485978    -0.15700
C1188       C  0.87585614  0.23793653  0.11164589     0.36700
N1189       N  0.84769202  0.25390623  0.10665396    -0.89900
H1190       H  0.89815778  0.27800295  0.12850743     0.17800
H1191       H  0.90973853  0.16798428  0.10401623     0.17800
N1192       N  0.96133943  0.19325218  0.12499819    -0.88900
H1193       H  0.85190120  0.27149082  0.09098985     0.35200
H1194       H  0.84074299  0.26371873  0.12733620     0.40300
H1195       H  0.96566890  0.19328507  0.14850388     0.39900
H1196       H  0.96001729  0.17032485  0.11838675     0.34800
C1197       C  0.89650848  0.34199961  0.08253126    -0.27000
C1198       C  0.92244131  0.36066915  0.08489061    -0.15000
C1199       C  0.92124185  0.39104338  0.07427260     0.35600
C1200       C  0.89325140  0.40314848  0.06475079    -0.26400
C1201       C  0.86662399  0.38519759  0.06551409    -0.15700
C1202       C  0.86865192  0.35396719  0.07319041     0.36700
N1203       N  0.84249281  0.33430131  0.07183899    -0.89900
H1204       H  0.89740789  0.31816379  0.08929696     0.17800
H1205       H  0.89225566  0.42693022  0.05774814     0.17800
N1206       N  0.94786669  0.41003661  0.07434821    -0.88900
H1207       H  0.83865783  0.32523216  0.09367451     0.35200
H1208       H  0.84743838  0.31631893  0.05689349     0.40300
H1209       H  0.94308397  0.42899679  0.08800844     0.39900
H1210       H  0.95165752  0.41778989  0.05200381     0.34800
C1211       C  0.75688233  0.30297292  0.07590105    -0.27000
C1212       C  0.75454847  0.31077950  0.04463902    -0.15000
C1213       C  0.75034652  0.28668654  0.02349127     0.35600
C1214       C  0.74938798  0.25589942  0.03399388    -0.26400
C1215       C  0.75283991  0.24816502  0.06524221    -0.15700
C1216       C  0.75622412  0.27242273  0.08624357     0.36700
N1217       N  0.75949148  0.26634543  0.11827226    -0.89900
H1218       H  0.75999378  0.32078116  0.09278751     0.17800
H1219       H  0.74693375  0.23774206  0.01737988     0.17800
N1220       N  0.74738789  0.29332584  0.99143398    -0.88900
H1221       H  0.74191302  0.27771378  0.12989466     0.35200
H1222       H  0.78030768  0.27558871  0.12540995     0.40300
H1223       H  0.72697339  0.30543819  0.98850430     0.39900
H1224       H  0.74522729  0.27312356  0.97888884     0.34800
C1225       C  0.96687560  0.44165846  0.20579193    -0.27000
C1226       C  0.95841250  0.46027515  0.18099140    -0.15000
C1227       C  0.97578508  0.45964223  0.15391603     0.35600
C1228       C  0.99617809  0.43535392  0.14944035    -0.26400
C1229       C  0.99851656  0.41236361  0.17177756    -0.15700
C1230       C  0.98687344  0.41728343  0.20124474     0.36700
N1231       N  0.99176683  0.39487648  0.22482591    -0.89900
H1232       H  0.95513466  0.44377630  0.22758840     0.17800
H1233       H  0.00612122  0.43195398  0.12694030     0.17800
N1234       N  0.97094829  0.48182239  0.13025077    -0.88900
H1235       H  0.98103925  0.40156552  0.24517558     0.35200
H1236       H  0.01522346  0.39436163  0.22915499     0.40300
H1237       H  0.96439450  0.47046294  0.11037426     0.39900
H1238       H  0.99182563  0.49260222  0.12580980     0.34800
C1239       C  0.80586158  0.51281057  0.13177472    -0.27000
C1240       C  0.83609966  0.52069101  0.12462122    -0.15000
C1241       C  0.84540699  0.52356356  0.09400653     0.35600
C1242       C  0.82583513  0.51291913  0.07112088    -0.26400
C1243       C  0.79849224  0.49813096  0.07926308    -0.15700
C1244       C  0.78674807  0.50149697  0.10912149     0.36700
N1245       N  0.75654066  0.49159451  0.11730673    -0.89900
H1246       H  0.79819037  0.51230631  0.15535732     0.17800
H1247       H  0.83433338  0.51131722  0.04784519     0.17800
N1248       N  0.87592160  0.53341242  0.08673600    -0.88900
H1249       H  0.75445430  0.46813257  0.11348644     0.35200
H1250       H  0.74099788  0.50297060  0.10315870     0.40300
H1251       H  0.87800414  0.55608374  0.09392897     0.39900
H1252       H  0.87937033  0.53347941  0.06304833     0.34800
C1253       C  0.08857128  0.37490988  0.15106418    -0.27000
C1254       C  0.08540279  0.34475064  0.16250648    -0.15000
C1255       C  0.09620392  0.33859182  0.19236154     0.35600
C1256       C  0.10828351  0.36254719  0.21020324    -0.26400
C1257       C  0.10939930  0.39296046  0.19951845    -0.15700
C1258       C  0.09984815  0.39906423  0.16937366     0.36700
N1259       N  0.10147033  0.42969140  0.15747739    -0.89900
H1260       H  0.08064401  0.38012393  0.12819906     0.17800
H1261       H  0.11605790  0.35754565  0.23318232     0.17800
N1262       N  0.09424044  0.30820738  0.20487378    -0.88900
H1263       H  0.09332402  0.43045828  0.13503642     0.35200
H1264       H  0.12454633  0.43586040  0.15648367     0.40300
H1265       H  0.10247055  0.30764725  0.22729080     0.39900
H1266       H  0.10866604  0.29418701  0.19190522     0.34800
C1267       C  0.99936088  0.54022377  0.23765545    -0.27000
C1268       C  0.97387793  0.53354707  0.25648023    -0.15000
C1269       C  0.97951757  0.51509339  0.28266157     0.35600
C1270       C  0.00882720  0.50210069  0.28768453    -0.26400
C1271       C  0.03352187  0.50667445  0.26718747    -0.15700
C1272       C  0.02858374  0.52728236  0.24262601     0.36700
N1273       N  0.05294642  0.53478918  0.22195552    -0.89900
H1274       H  0.99615814  0.55436003  0.21750570     0.17800
H1275       H  0.01188989  0.48731346  0.30736081     0.17800
N1276       N  0.95562133  0.50734014  0.30359660    -0.88900
H1277       H  0.05600347  0.55850776  0.22235027     0.35200
H1278       H  0.04627029  0.52861373  0.19988376     0.40300
H1279       H  0.93989138  0.49425006  0.29178665     0.39900
H1280       H  0.94509141  0.52755800  0.31101811     0.34800
C1281       C  0.88492657  0.33919905  0.94548401    -0.27000
C1282       C  0.88080128  0.33361656  0.91425347    -0.15000
C1283       C  0.85411853  0.34558682  0.90012272     0.35600
C1284       C  0.83245121  0.36260985  0.91739763    -0.26400
C1285       C  0.83675904  0.36799640  0.94876735    -0.15700
C1286       C  0.86334441  0.35563977  0.96272198     0.36700
N1287       N  0.86826549  0.35891025  0.99493184    -0.89900
H1288       H  0.90463778  0.32973863  0.95712290     0.17800
H1289       H  0.81255122  0.37204914  0.90609726     0.17800
N1290       N  0.84905046  0.34093023  0.86814534    -0.88900
H1291       H  0.88918982  0.36998749  0.99811617     0.35200
H1292       H  0.86987078  0.33705358  0.00456557     0.40300
H1293       H  0.84730227  0.36238174  0.85765011     0.39900
H1294       H  0.82810342  0.32973295  0.86563163     0.34800
C1295       C  0.98736960  0.24185014  0.00644535    -0.27000
C1296       C  0.98629992  0.26418659  0.98301054    -0.15000
C1297       C  0.00027307  0.29273477  0.98894757     0.35600
C1298       C  0.01317460  0.29882169  0.01774591    -0.26400
C1299       C  0.01267702  0.27736855  0.04189701    -0.15700
C1300       C  0.00049099  0.24801668  0.03544547     0.36700
N1301       N  0.00012592  0.22432993  0.05804442    -0.89900
H1302       H  0.97761389  0.21946784  0.00238252     0.17800
H1303       H  0.02228796  0.32151103  0.02176344     0.17800
N1304       N  0.00040062  0.31641222  0.96621720    -0.88900
H1305       H  0.02253065  0.22076897  0.06549649     0.35200
H1306       H  0.98691914  0.23175010  0.07647739     0.40300
H1307       H  0.02311695  0.32255305  0.96189306     0.39900
H1308       H  0.98907443  0.33548196  0.97519176     0.34800
C1309       C  0.84438869  0.22721659  0.96996869    -0.27000
C1310       C  0.85205920  0.21157087  0.94316070    -0.15000
C1311       C  0.83912961  0.18254594  0.93761012     0.35600
C1312       C  0.82040530  0.16865117  0.95988511    -0.26400
C1313       C  0.81513605  0.18308775  0.98795242    -0.15700
C1314       C  0.82650945  0.21296844  0.99262955     0.36700
N1315       N  0.82184695  0.22793794  0.02140418    -0.89900
H1316       H  0.85445054  0.24939121  0.97451116     0.17800
H1317       H  0.81238645  0.14548182  0.95635374     0.17800
N1318       N  0.84628051  0.16651836  0.90995134    -0.88900
H1319       H  0.81160780  0.24912282  0.01713004     0.35200
H1320       H  0.84325762  0.23206313  0.03111534     0.40300
H1321       H  0.82575003  0.16163283  0.89882847     0.39900
H1322       H  0.85662908  0.14575387  0.91580547     0.34800
C1323       C  0.61399137  0.68503205  0.09181100    -0.27000
C1324       C  0.64395257  0.69629557  0.09399532    -0.15000
C1325       C  0.64884660  0.72467228  0.10835751     0.35600
C1326       C  0.62404888  0.74183777  0.11891674    -0.26400
C1327       C  0.59391611  0.73100610  0.11679380    -0.15700
C1328       C  0.58902199  0.70170225  0.10363851     0.36700
N1329       N  0.55962364  0.68727554  0.10389819    -0.89900
H1330       H  0.61016926  0.66239042  0.08255034     0.17800
H1331       H  0.62868713  0.76393745  0.12905841     0.17800
N1332       N  0.67922407  0.73599873  0.11291199    -0.88900
H1333       H  0.54443027  0.69999445  0.09068251     0.35200
H1334       H  0.55158479  0.68659753  0.12645295     0.40300
H1335       H  0.68255320  0.73885449  0.13639709     0.39900
H1336       H  0.68083913  0.75753251  0.10254081     0.34800
C1337       C  0.73270020  0.78043811  0.02679688    -0.27000
C1338       C  0.75784018  0.80028844  0.02905456    -0.15000
C1339       C  0.78538319  0.78836179  0.04138964     0.35600
C1340       C  0.78645695  0.75787332  0.05256546    -0.26400
C1341       C  0.76023246  0.73915527  0.05274274    -0.15700
C1342       C  0.73333928  0.75071138  0.03871880     0.36700
N1343       N  0.70597625  0.73289656  0.03620418    -0.89900
H1344       H  0.71142912  0.78875731  0.01718787     0.17800
H1345       H  0.80737040  0.74943491  0.06276366     0.17800
N1346       N  0.81198720  0.80710449  0.04451759    -0.88900
H1347       H  0.69741800  0.72854303  0.05795591     0.35200
H1348       H  0.71126269  0.71199342  0.02602770     0.40300
H1349       H  0.80634572  0.82596826  0.05807790     0.39900
H1350       H  0.81832015  0.81496347  0.02279658     0.34800
C1351       C  0.70196374  0.71538824  0.94451603    -0.27000
C1352       C  0.67690534  0.69979848  0.93204468    -0.15000
C1353       C  0.67543245  0.66762991  0.93500141     0.35600
C1354       C  0.69516704  0.65266000  0.95491141    -0.26400
C1355       C  0.71663188  0.66908453  0.97181326    -0.15700
C1356       C  0.72253365  0.69994922  0.96398179     0.36700
N1357       N  0.74791958  0.71588441  0.97723223    -0.89900
H1358       H  0.70449156  0.73972098  0.94057245     0.17800
H1359       H  0.69186358  0.62842211  0.95911464     0.17800
N1360       N  0.65308562  0.65011616  0.91875840    -0.88900
H1361       H  0.74854476  0.73853680  0.96952194     0.35200
H1362       H  0.76792406  0.70543967  0.96924250     0.40300
H1363       H  0.66459235  0.63375511  0.90562830     0.39900
H1364       H  0.63948360  0.63856056  0.93476359     0.34800
C1365       C  0.80104079  0.62009032  0.16546240    -0.27000
C1366       C  0.81372234  0.62397050  0.13604155    -0.15000
C1367       C  0.84499553  0.61755786  0.13168781     0.35600
C1368       C  0.86272031  0.60718483  0.15667050    -0.26400
C1369       C  0.84963927  0.60135164  0.18577866    -0.15700
C1370       C  0.81837198  0.60853197  0.19013592     0.36700
N1371       N  0.80407317  0.60358608  0.21939792    -0.89900
H1372       H  0.77709741  0.62544178  0.16905763     0.17800
H1373       H  0.88662344  0.60190620  0.15279512     0.17800
N1374       N  0.85881354  0.62210328  0.10214066    -0.88900
H1375       H  0.78090674  0.60946640  0.21865941     0.35200
H1376       H  0.81434552  0.61844699  0.23497401     0.40300
H1377       H  0.84920287  0.60620473  0.08718336     0.39900
H1378       H  0.88220385  0.61722448  0.10293988     0.34800
C1379       C  0.77350736  0.54412199  0.00104857    -0.27000
C1380       C  0.74674114  0.55099399  0.01766034    -0.15000
C1381       C  0.72230990  0.52971396  0.01617208     0.35600
C1382       C  0.72611225  0.50138287  0.00108037    -0.26400
C1383       C  0.75360074  0.49365477  0.98610361    -0.15700
C1384       C  0.77697948  0.51623298  0.98491012     0.36700
N1385       N  0.80485413  0.51027528  0.96842618    -0.89900
H1386       H  0.79207821  0.56048980  0.00082907     0.17800
H1387       H  0.70763827  0.48491574  0.00202438     0.17800
N1388       N  0.69329603  0.53682657  0.02971209    -0.88900
H1389       H  0.81992610  0.52871786  0.97025652     0.35200
H1390       H  0.79927863  0.50841074  0.94526991     0.40300
H1391       H  0.68852687  0.52053982  0.04652955     0.39900
H1392       H  0.67655975  0.53531312  0.01276782     0.34800
C1393       C  0.05470979  0.63334262  0.78270304    -0.27000
C1394       C  0.05586180  0.61040661  0.80503401    -0.15000
C1395       C  0.03629157  0.61120092  0.83053925     0.35600
C1396       C  0.01865108  0.63742311  0.83544274    -0.26400
C1397       C  0.02219490  0.66282770  0.81614487    -0.15700
C1398       C  0.03798557  0.65983322  0.78812902     0.36700
N1399       N  0.03953429  0.68430633  0.76626730    -0.89900
H1400       H  0.06926755  0.63204995  0.76260217     0.17800
H1401       H  0.00633090  0.63986943  0.85687959     0.17800
N1402       N  0.03748491  0.58730082  0.85315488    -0.88900
H1403       H  0.05020425  0.70318562  0.77614557     0.35200
H1404       H  0.01719738  0.69052155  0.76051195     0.40300
H1405       H  0.02934504  0.56731345  0.84296885     0.39900
H1406       H  0.02273637  0.59218120  0.87138810     0.34800
C1407       C  0.17355474  0.57002678  0.93060894    -0.27000
C1408       C  0.20492481  0.57573919  0.92754417    -0.15000
C1409       C  0.22013412  0.56866534  0.90017009     0.35600
C1410       C  0.20288354  0.56188766  0.87451573    -0.26400
C1411       C  0.17078102  0.56275431  0.87606297    -0.15700
C1412       C  0.15603869  0.56421699  0.90468096     0.36700
N1413       N  0.12338716  0.56292221  0.90713952    -0.89900
H1414       H  0.16194615  0.57502954  0.95200101     0.17800
H1415       H  0.21452840  0.55872335  0.85280051     0.17800
N1416       N  0.25272588  0.57068744  0.89739706    -0.88900
H1417       H  0.11774629  0.54517813  0.92221041     0.35200
H1418       H  0.11567016  0.58344351  0.91669442     0.40300
H1419       H  0.26233171  0.55602376  0.91368098     0.39900
H1420       H  0.25958932  0.59300957  0.90234438     0.34800
C1421       C  0.12377829  0.66167737  0.93386358    -0.27000
C1422       C  0.14482204  0.68256202  0.94599485    -0.15000
C1423       C  0.13876418  0.71407475  0.94513450     0.35600
C1424       C  0.11261237  0.72446549  0.93055714    -0.26400
C1425       C  0.09277579  0.70384485  0.91636745    -0.15700
C1426       C  0.09779525  0.67214837  0.91866351     0.36700
N1427       N  0.07783582  0.65079356  0.90397438    -0.89900
H1428       H  0.12844340  0.63732711  0.93452403     0.17800
H1429       H  0.10847673  0.74890438  0.92921674     0.17800
N1430       N  0.15936678  0.73559675  0.95853347    -0.88900
H1431       H  0.06959613  0.63560307  0.92057440     0.35200
H1432       H  0.09067360  0.63822647  0.88814285     0.40300
H1433       H  0.16661853  0.75066784  0.94135673     0.39900
H1434       H  0.14731884  0.74822433  0.97490802     0.34800
C1435       C  0.91304818  0.67299230  0.82901843    -0.27000
C1436       C  0.91444525  0.67536945  0.79700793    -0.15000
C1437       C  0.92645472  0.70303287  0.78429447     0.35600
C1438       C  0.93683322  0.72663139  0.80323263    -0.26400
C1439       C  0.93598923  0.72417075  0.83516658    -0.15700
C1440       C  0.92338696  0.69704841  0.84805387     0.36700
N1441       N  0.92135175  0.69355344  0.88056289    -0.89900
H1442       H  0.90371304  0.65247425  0.83938954     0.17800
H1443       H  0.94706534  0.74660123  0.79259845     0.17800
N1444       N  0.93034541  0.70737150  0.75205051    -0.88900
H1445       H  0.93371750  0.67402476  0.88672935     0.35200
H1446       H  0.89840969  0.68989407  0.88631461     0.40300
H1447       H  0.90896630  0.70867889  0.74158685     0.39900
H1448       H  0.94263567  0.68877822  0.74350982     0.34800
C1449       C  0.01561516  0.55264224  0.71702490    -0.27000
C1450       C  0.99440587  0.55513177  0.74132296    -0.15000
C1451       C  0.00149567  0.54034684  0.76924258     0.35600
C1452       C  0.02946930  0.52429173  0.77227660    -0.26400
C1453       C  0.05150910  0.52342785  0.74855859    -0.15700
C1454       C  0.04382070  0.53714319  0.72025508     0.36700
N1455       N  0.06483284  0.53580579  0.69491359    -0.89900
H1456       H  0.01031931  0.56323025  0.69524636     0.17800
H1457       H  0.03479858  0.51385548  0.79411531     0.17800
N1458       N  0.98028056  0.54132403  0.79442154    -0.88900
H1459       H  0.05604604  0.54740882  0.67593814     0.35200
H1460       H  0.06697043  0.51285297  0.68858217     0.40300
H1461       H  0.97975509  0.56383111  0.80242452     0.39900
H1462       H  0.98814444  0.52792823  0.81262070     0.34800
C1463       C  0.18350004  0.43553033  0.87164771    -0.27000
C1464       C  0.21521115  0.43842559  0.86756585    -0.15000
C1465       C  0.22604908  0.45236572  0.83993194     0.35600
C1466       C  0.20537804  0.46381205  0.81832421    -0.26400
C1467       C  0.17386259  0.46234630  0.82327655    -0.15700
C1468       C  0.16289981  0.44733168  0.84986182     0.36700
N1469       N  0.13065974  0.44496938  0.85525315    -0.89900
H1470       H  0.17458580  0.42453442  0.89205809     0.17800
H1471       H  0.21416897  0.47626603  0.79868335     0.17800
N1472       N  0.25789125  0.45718125  0.83375241    -0.88900
H1473       H  0.12568088  0.45563644  0.87606677     0.35200
H1474       H  0.12520523  0.42177847  0.85743406     0.40300
H1475       H  0.26871514  0.43605596  0.83093191     0.39900
H1476       H  0.26759386  0.46906993  0.85201099     0.34800
C1477       C  0.29511420  0.52900677  0.00015820    -0.27000
C1478       C  0.26998089  0.51084980  0.99118205    -0.15000
C1479       C  0.24031652  0.52145020  0.99880384     0.35600
C1480       C  0.23667393  0.54956703  0.01445926    -0.26400
C1481       C  0.26163932  0.56904011  0.02073464    -0.15700
C1482       C  0.29131808  0.55779353  0.01453429     0.36700
N1483       N  0.31758565  0.57595446  0.02208210    -0.89900
H1484       H  0.31807490  0.52107931  0.99521507     0.17800
H1485       H  0.21372284  0.55742000  0.01958235     0.17800
N1486       N  0.21383284  0.50394258  0.99049727    -0.88900
H1487       H  0.33774518  0.56475690  0.01566623     0.35200
H1488       H  0.31811660  0.57809361  0.04588453     0.40300
H1489       H  0.21200077  0.50487199  0.96666924     0.39900
H1490       H  0.19393455  0.51412230  0.99907399     0.34800
C1491       C  0.13240580  0.70491147  0.08695134    -0.27000
C1492       C  0.14333890  0.73159707  0.10058982    -0.15000
C1493       C  0.17563353  0.73551987  0.10298742     0.35600
C1494       C  0.19557363  0.71528347  0.08777052    -0.26400
C1495       C  0.18418349  0.69016198  0.07159126    -0.15700
C1496       C  0.15237220  0.68371158  0.07345206     0.36700
N1497       N  0.14024514  0.65598069  0.06066719    -0.89900
H1498       H  0.10799886  0.70071532  0.08641052     0.17800
H1499       H  0.21988387  0.72005398  0.08746646     0.17800
N1500       N  0.18897745  0.76000356  0.12004121    -0.88900
H1501       H  0.11653792  0.65486533  0.06365907     0.35200
H1502       H  0.14951933  0.63768529  0.07299023     0.40300
H1503       H  0.18219390  0.75779776  0.14291901     0.39900
H1504       H  0.18096893  0.78078415  0.11158226     0.34800
C1505       C  0.00238612  0.76076093  0.98450941    -0.27000
C1506       C  0.00519126  0.78255182  0.96074000    -0.15000
C1507       C  0.01930537  0.81055081  0.96781450     0.35600
C1508       C  0.03147678  0.81567798  0.99730486    -0.26400
C1509       C  0.03000075  0.79337083  0.02075842    -0.15700
C1510       C  0.01404084  0.76593780  0.01430255     0.36700
N1511       N  0.01051464  0.74286663  0.03752420    -0.89900
H1512       H  0.99190356  0.73891388  0.97944298     0.17800
H1513       H  0.04291006  0.83722110  0.00152406     0.17800
N1514       N  0.02334194  0.83319049  0.94455934    -0.88900
H1515       H  0.99978171  0.72349384  0.02863027     0.35200
H1516       H  0.99563135  0.75161682  0.05412188     0.40300
H1517       H  0.04680918  0.83727504  0.94247243     0.39900
H1518       H  0.01292863  0.85338764  0.95203814     0.34800
C1519       C  0.07705274  0.92222498  0.17326038    -0.27000
C1520       C  0.09938502  0.91169436  0.15297561    -0.15000
C1521       C  0.12768367  0.92710276  0.15082880     0.35600
C1522       C  0.13408621  0.95119866  0.17084082    -0.26400
C1523       C  0.11319705  0.95900267  0.19383606    -0.15700
C1524       C  0.08403540  0.94496243  0.19457132     0.36700
N1525       N  0.06251060  0.95210793  0.21840323    -0.89900
H1526       H  0.05515048  0.91079325  0.17442411     0.17800
H1527       H  0.15645320  0.96184955  0.17015133     0.17800
N1528       N  0.15037664  0.91756976  0.12912024    -0.88900
H1529       H  0.04205400  0.94011691  0.21545744     0.35200
H1530       H  0.05723979  0.97523236  0.21691930     0.40300
H1531       H  0.17007717  0.91138277  0.14112520     0.39900
H1532       H  0.15577031  0.93630858  0.11520682     0.34800
C1533       C  0.27147908  0.95266131  0.26924791    -0.27000
C1534       C  0.29340036  0.96661436  0.25015098    -0.15000
C1535       C  0.28421360  0.99323576  0.23391754     0.35600
C1536       C  0.25372672  0.00470707  0.23672171    -0.26400
C1537       C  0.23183179  0.99015277  0.25561146    -0.15700
C1538       C  0.24150879  0.96398991  0.27224907     0.36700
N1539       N  0.22101700  0.94887832  0.29303497    -0.89900
H1540       H  0.27763794  0.93267596  0.28259726     0.17800
H1541       H  0.24711228  0.02475348  0.22371592     0.17800
N1542       N  0.30579169  0.00908184  0.21498405    -0.88900
H1543       H  0.23073463  0.94922543  0.31484638     0.35200
H1544       H  0.21898573  0.92604937  0.28624952     0.40300
H1545       H  0.30760803  0.03150445  0.22303405     0.39900
H1546       H  0.29703511  0.00995712  0.19278506     0.34800
C1547       C  0.01583135  0.93650918  0.34326333    -0.27000
C1548       C  0.02237304  0.90769940  0.33099355    -0.15000
C1549       C  0.03720380  0.90508932  0.30265479     0.35600
C1550       C  0.05036582  0.93089805  0.28971016    -0.26400
C1551       C  0.04866553  0.95897251  0.30481001    -0.15700
C1552       C  0.02933558  0.96260885  0.33035362     0.36700
N1553       N  0.02736174  0.99163519  0.34555680    -0.89900
H1554       H  0.00396258  0.93815535  0.36501549     0.17800
H1555       H  0.06571123  0.92793945  0.27048870     0.17800
N1556       N  0.04169609  0.87581157  0.28870579    -0.88900
H1557       H  0.01297253  0.99010745  0.36467491     0.35200
H1558       H  0.01703664  0.00696531  0.33045396     0.40300
H1559       H  0.06522076  0.87203467  0.28643686     0.39900
H1560       H  0.03233801  0.87658762  0.26674964     0.34800
C1561       C  0.08199259  0.80028065  0.26726669    -0.27000
C1562       C  0.05212073  0.79113263  0.27530774    -0.15000
C1563       C  0.03327057  0.77881898  0.25223631     0.35600
C1564       C  0.04417329  0.77746047  0.22161238    -0.26400
C1565       C  0.07347363  0.78832497  0.21347725    -0.15700
C1566       C  0.09288864  0.79878235  0.23692725     0.36700
N1567       N  0.12365871  0.80804962  0.22981458    -0.89900
H1568       H  0.09697818  0.80904269  0.28486447     0.17800
H1569       H  0.02909737  0.76944805  0.20375098     0.17800
N1570       N  0.00259107  0.76952668  0.25948947    -0.88900
H1571       H  0.13536319  0.78875822  0.22182766     0.35200
H1572       H  0.13501065  0.81518663  0.24953727     0.40300
H1573       H  0.00400034  0.75024400  0.27360144     0.39900
H1574       H  0.99119310  0.76258408  0.23971927     0.34800
C1575       C  0.31122888  0.91487375  0.35936615    -0.27000
C1576       C  0.33704475  0.93294207  0.36521390    -0.15000
C1577       C  0.34269062  0.94253662  0.39543512     0.35600
C1578       C  0.32325939  0.93234388  0.41932011    -0.26400
C1579       C  0.29796250  0.91320627  0.41355051    -0.15700
C1580       C  0.29164105  0.90523934  0.38288867     0.36700
N1581       N  0.26537223  0.88728580  0.37526090    -0.89900
H1582       H  0.30638374  0.90768977  0.33616067     0.17800
H1583       H  0.32829454  0.93896218  0.44259034     0.17800
N1584       N  0.36880968  0.96126283  0.40201178    -0.88900
H1585       H  0.27286117  0.86750933  0.36408997     0.35200
H1586       H  0.25198473  0.89988570  0.35996772     0.40300
H1587       H  0.36519612  0.98255392  0.39168773     0.39900
H1588       H  0.37031006  0.96534515  0.42551329     0.34800
C1589       C  0.18834811  0.99187119  0.37702682    -0.27000
C1590       C  0.15672591  0.99557315  0.37383585    -0.15000
C1591       C  0.13686636  0.98870776  0.39849616     0.35600
C1592       C  0.14859449  0.97271099  0.42348749    -0.26400
C1593       C  0.17940647  0.96416229  0.42378665    -0.15700
C1594       C  0.19992220  0.97613574  0.40203576     0.36700
N1595       N  0.23218555  0.97078025  0.40442358    -0.89900
H1596       H  0.20382566  0.99871388  0.35880902     0.17800
H1597       H  0.13317448  0.96443514  0.44113803     0.17800
N1598       N  0.10467554  0.99523276  0.39683750    -0.88900
H1599       H  0.24321110  0.99198716  0.40492015     0.35200
H1600       H  0.23945861  0.95920290  0.38478885     0.40300
H1601       H  0.10220121  0.01902615  0.39697940     0.39900
H1602       H  0.09331079  0.98715314  0.41634016     0.34800
C1603       C  0.10417544  0.89151902  0.48194838    -0.27000
C1604       C  0.12462737  0.86776265  0.48896553    -0.15000
C1605       C  0.11606568  0.83721027  0.48397683     0.35600
C1606       C  0.09006025  0.83146017  0.46661949    -0.26400
C1607       C  0.07334033  0.85574233  0.45370390    -0.15700
C1608       C  0.07850527  0.88573950  0.46384323     0.36700
N1609       N  0.06009952  0.91060565  0.45304160    -0.89900
H1610       H  0.11053568  0.91505692  0.48641382     0.17800
H1611       H  0.08511207  0.80804982  0.46014348     0.17800
N1612       N  0.13497873  0.81193765  0.49320504    -0.88900
H1613       H  0.07427851  0.92591874  0.44127301     0.35200
H1614       H  0.05112848  0.92195509  0.47210622     0.40300
H1615       H  0.15330189  0.81958667  0.50639879     0.39900
H1616       H  0.12184817  0.79805086  0.50766708     0.34800
C1617       C  0.16218021  0.11346643  0.34385292    -0.27000
C1618       C  0.17180134  0.10306217  0.31475457    -0.15000
C1619       C  0.20238272  0.10800179  0.30605886     0.35600
C1620       C  0.22292410  0.12131519  0.32693705    -0.26400
C1621       C  0.21380304  0.12954360  0.35692265    -0.15700
C1622       C  0.18271069  0.12644654  0.36495360     0.36700
N1623       N  0.17212605  0.13580847  0.39466405    -0.89900
H1624       H  0.13864432  0.10993559  0.35085766     0.17800
H1625       H  0.24663835  0.12367175  0.32004763     0.17800
N1626       N  0.21324606  0.09771290  0.27690149    -0.88900
H1627       H  0.14873939  0.13149010  0.39715536     0.35200
H1628       H  0.17483513  0.15952926  0.39604441     0.40300
H1629       H  0.23085478  0.08194466  0.28059149     0.39900
H1630       H  0.22247333  0.11652706  0.26529977     0.34800
C1631       C  0.28666699  0.99375324  0.48053287    -0.27000
C1632       C  0.26272265  0.99167618  0.50200485    -0.15000
C1633       C  0.24617010  0.01880332  0.50899558     0.35600
C1634       C  0.25270269  0.04634361  0.49359824    -0.26400
C1635       C  0.27560960  0.04800330  0.47111252    -0.15700
C1636       C  0.29318668  0.02149999  0.46510507     0.36700
N1637       N  0.31664057  0.02223304  0.44214551    -0.89900
H1638       H  0.29900041  0.97328466  0.47409308     0.17800
H1639       H  0.23968414  0.06667582  0.49927523     0.17800
N1640       N  0.22245896  0.01908743  0.53173158    -0.88900
H1641       H  0.31119274  0.00608198  0.42542414     0.35200
H1642       H  0.33717961  0.01551988  0.45230837     0.40300
H1643       H  0.23144268  0.01044895  0.55213917     0.39900
H1644       H  0.20451337  0.00505362  0.52479773     0.34800
C1645       C  0.36626846  0.09296659  0.33020889    -0.27000
C1646       C  0.33676522  0.08735700  0.34154425    -0.15000
C1647       C  0.31988226  0.06237225  0.33072984     0.35600
C1648       C  0.33351332  0.04208094  0.31000288    -0.26400
C1649       C  0.36406182  0.04611477  0.30090959    -0.15700
C1650       C  0.38025787  0.07215498  0.31030264     0.36700
N1651       N  0.41120521  0.07683608  0.30050497    -0.89900
H1652       H  0.37918932  0.11243146  0.33840496     0.17800
H1653       H  0.32106149  0.02186122  0.30296628     0.17800
N1654       N  0.28932668  0.05716349  0.34144368    -0.88900
H1655       H  0.42498793  0.07804299  0.31994351     0.35200
H1656       H  0.41234382  0.09795818  0.28927305     0.40300
H1657       H  0.28855098  0.03551597  0.35164666     0.39900
H1658       H  0.27485247  0.05693715  0.32246564     0.34800
C1659       C  0.85114291  0.92859659  0.10612041    -0.27000
C1660       C  0.83802011  0.93649834  0.13443176    -0.15000
C1661       C  0.80582041  0.93592837  0.13764925     0.35600
C1662       C  0.78778285  0.92533433  0.11357085    -0.26400
C1663       C  0.80111803  0.91608717  0.08593621    -0.15700
C1664       C  0.83294422  0.91833331  0.08191977     0.36700
N1665       N  0.84693455  0.90916363  0.05371093    -0.89900
H1666       H  0.87566605  0.92955017  0.10289702     0.17800
H1667       H  0.76313946  0.92470471  0.11637243     0.17800
N1668       N  0.79124412  0.94634034  0.16515707    -0.88900
H1669       H  0.86255533  0.89167944  0.05847476     0.35200
H1670       H  0.85911583  0.92782477  0.04496233     0.40300
H1671       H  0.77802654  0.92844958  0.17402230     0.39900
H1672       H  0.77655539  0.96434108  0.15948299     0.34800
C1673       C  0.77453407  0.95647832  0.24915066    -0.27000
C1674       C  0.79684409  0.97922358  0.25319506    -0.15000
C1675       C  0.78643211  0.01010931  0.25486568     0.35600
C1676       C  0.75473736  0.01717378  0.25149617    -0.26400
C1677       C  0.73262017  0.99427151  0.24661973    -0.15700
C1678       C  0.74317493  0.96345761  0.24595786     0.36700
N1679       N  0.72217909  0.93868524  0.24182179    -0.89900
H1680       H  0.78146083  0.93272103  0.24770451     0.17800
H1681       H  0.74737594  0.04082636  0.25225145     0.17800
N1682       N  0.80800335  0.03443034  0.25935904    -0.88900
H1683       H  0.72400629  0.92396213  0.26061590     0.35200
H1684       H  0.72871876  0.92662531  0.22222282     0.40300
H1685       H  0.81704425  0.03186951  0.28132090     0.39900
H1686       H  0.79701407  0.05567851  0.25896728     0.34800
C1687       C  0.87247262  0.08394754  0.13817605    -0.27000
C1688       C  0.84769359  0.09931938  0.15138532    -0.15000
C1689       C  0.84190945  0.09622572  0.18303074     0.35600
C1690       C  0.85798092  0.07375767  0.19966672    -0.26400
C1691       C  0.88016004  0.05570034  0.18507114    -0.15700
C1692       C  0.88901344  0.06257044  0.15483233     0.36700
N1693       N  0.91392485  0.04668589  0.14049935    -0.89900
H1694       H  0.87834320  0.08769855  0.11432458     0.17800
H1695       H  0.85177942  0.06895015  0.22320803     0.17800
N1696       N  0.81881591  0.11442624  0.19763038    -0.88900
H1697       H  0.92997662  0.06291193  0.13328252     0.35200
H1698       H  0.90557221  0.03556356  0.12110675     0.40300
H1699       H  0.82617403  0.13716224  0.19705935     0.39900
H1700       H  0.81679851  0.10845306  0.22073266     0.34800
C1701       C  0.89947760  0.88660830  0.32667071    -0.27000
C1702       C  0.91657873  0.89964220  0.30258347    -0.15000
C1703       C  0.94524893  0.88646954  0.29527906     0.35600
C1704       C  0.95568040  0.86049313  0.31095199    -0.26400
C1705       C  0.93907796  0.84767916  0.33539930    -0.15700
C1706       C  0.91084524  0.86125068  0.34353012     0.36700
N1707       N  0.89320597  0.84871303  0.36818883    -0.89900
H1708       H  0.87693978  0.89554606  0.33187683     0.17800
H1709       H  0.97781375  0.85107890  0.30482172     0.17800
N1710       N  0.96437534  0.89922023  0.27183342    -0.88900
H1711       H  0.87195495  0.84215117  0.35952412     0.35200
H1712       H  0.88949923  0.86603826  0.38421607     0.40300
H1713       H  0.96894949  0.92198875  0.27747030     0.39900
H1714       H  0.95239170  0.89899061  0.25126638     0.34800
C1715       C  0.00916767  0.01634439  0.21065271    -0.27000
C1716       C  0.98868848  0.01340053  0.23559907    -0.15000
C1717       C  0.99597999  0.02917454  0.26283374     0.35600
C1718       C  0.02443443  0.04455029  0.26540727    -0.26400
C1719       C  0.04620563  0.04492438  0.24135917    -0.15700
C1720       C  0.03737813  0.03199256  0.21319209     0.36700
N1721       N  0.05714844  0.03427306  0.18706352    -0.89900
H1722       H  0.00359710  0.00586912  0.18895226     0.17800
H1723       H  0.03017229  0.05514096  0.28699967     0.17800
N1724       N  0.97440437  0.02991539  0.28772321    -0.88900
H1725       H  0.04520987  0.04558984  0.16972963     0.35200
H1726       H  0.06216807  0.01224436  0.17928542     0.40300
H1727       H  0.95498713  0.04157150  0.28005777     0.39900
H1728       H  0.98298356  0.04276413  0.30588971     0.34800
C1729       C  0.97483647  0.87246802  0.18897599    -0.27000
C1730       C  0.94710380  0.88019791  0.17500668    -0.15000
C1731       C  0.93975593  0.86703863  0.14641274     0.35600
C1732       C  0.96101038  0.84811115  0.13161390    -0.26400
C1733       C  0.98907556  0.84122749  0.14529486    -0.15700
C1734       C  0.99550432  0.85256443  0.17470443     0.36700
N1735       N  0.02377573  0.84523838  0.18945481    -0.89900
H1736       H  0.98110876  0.88271556  0.21053614     0.17800
H1737       H  0.95607201  0.83964030  0.10888910     0.17800
N1738       N  0.91193383  0.87428888  0.13088410    -0.88900
H1739       H  0.01855212  0.83534343  0.21061983     0.35200
H1740       H  0.03545698  0.86558687  0.19375033     0.40300
H1741       H  0.91122624  0.89792551  0.12753526     0.39900
H1742       H  0.89354822  0.86789774  0.14484204     0.34800
C1743       C  0.09256139  0.61224852  0.69317100    -0.27000
C1744       C  0.12369738  0.60616616  0.69804820    -0.15000
C1745       C  0.14606045  0.62459372  0.68388322     0.35600
C1746       C  0.13673509  0.64974810  0.66618442    -0.26400
C1747       C  0.10564290  0.65670038  0.66276180    -0.15700
C1748       C  0.08327107  0.63712994  0.67512392     0.36700
N1749       N  0.05136017  0.64339488  0.67048448    -0.89900
H1750       H  0.07549826  0.59858736  0.70494010     0.17800
H1751       H  0.15373694  0.66464375  0.65590040     0.17800
N1752       N  0.17800918  0.61879482  0.68901211    -0.88900
H1753       H  0.03786425  0.62709534  0.68172355     0.35200
H1754       H  0.04693014  0.64114807  0.64711962     0.40300
H1755       H  0.18247220  0.62284292  0.71212406     0.39900
H1756       H  0.19143044  0.63431422  0.67663485     0.34800
C1757       C  0.01873766  0.79705943  0.74169430    -0.27000
C1758       C  0.03951099  0.79596007  0.76594116    -0.15000
C1759       C  0.07119740  0.79652404  0.75906669     0.35600
C1760       C  0.08138401  0.79468428  0.72844691    -0.26400
C1761       C  0.06068059  0.79341631  0.70403586    -0.15700
C1762       C  0.02891976  0.79663778  0.71085045     0.36700
N1763       N  0.00684175  0.79742357  0.68661041    -0.89900
H1764       H  0.99448431  0.79634907  0.74678816     0.17800
H1765       H  0.10567616  0.79311576  0.72372886     0.17800
N1766       N  0.09302506  0.79718841  0.78354983    -0.88900
H1767       H  0.00991214  0.81804729  0.67482181     0.35200
H1768       H  0.98461417  0.79803589  0.69548398     0.40300
H1769       H  0.09041023  0.81814522  0.79474438     0.39900
H1770       H  0.11536194  0.79681777  0.77493305     0.34800
C1771       C  0.96161303  0.71951837  0.63323995    -0.27000
C1772       C  0.99098317  0.72371997  0.64497469    -0.15000
C1773       C  0.99832012  0.71172165  0.67395387     0.35600
C1774       C  0.97801961  0.69183530  0.68865048    -0.26400
C1775       C  0.94956117  0.68526478  0.67574677    -0.15700
C1776       C  0.94039471  0.70086895  0.64886422     0.36700
N1777       N  0.91056799  0.69586654  0.63630373    -0.89900
H1778       H  0.95605938  0.72879024  0.61092797     0.17800
H1779       H  0.98508863  0.68050529  0.70953889     0.17800
N1780       N  0.02727098  0.71845383  0.68761420    -0.88900
H1781       H  0.90817681  0.70750228  0.61552035     0.35200
H1782       H  0.89489859  0.70587274  0.65138532     0.40300
H1783       H  0.03878186  0.69790590  0.69158825     0.39900
H1784       H  0.02309722  0.72860301  0.70885411     0.34800
C1785       C  0.17933954  0.81536440  0.58685991    -0.27000
C1786       C  0.14920115  0.82640482  0.59107909    -0.15000
C1787       C  0.14374475  0.85783454  0.58591016     0.35600
C1788       C  0.16826542  0.87715952  0.57717276    -0.26400
C1789       C  0.19796892  0.86570243  0.57123949    -0.15700
C1790       C  0.20351148  0.83438984  0.57700052     0.36700
N1791       N  0.23354393  0.82176156  0.57238744    -0.89900
H1792       H  0.18413949  0.79135054  0.59073519     0.17800
H1793       H  0.16351744  0.90110619  0.57287893     0.17800
N1794       N  0.11344483  0.87014634  0.58925866    -0.88900
H1795       H  0.23374975  0.79832543  0.57725498     0.35200
H1796       H  0.24811692  0.83207723  0.58818611     0.40300
H1797       H  0.10016298  0.86110020  0.57163284     0.39900
H1798       H  0.11358637  0.89383332  0.58588369     0.34800
C1799       C  0.00503218  0.78394854  0.51566122    -0.27000
C1800       C  0.02753239  0.76117396  0.51707304    -0.15000
C1801       C  0.03214384  0.74239501  0.49103080     0.35600
C1802       C  0.01633617  0.74863531  0.46361760    -0.26400
C1803       C  0.99526341  0.77290004  0.46162473    -0.15700
C1804       C  0.98825516  0.78935319  0.48881650     0.36700
N1805       N  0.96532414  0.81297627  0.48943148    -0.89900
H1806       H  0.00026187  0.79766652  0.53574832     0.17800
H1807       H  0.02254750  0.73611070  0.44315463     0.17800
N1808       N  0.05411645  0.71808036  0.49116928    -0.88900
H1809       H  0.94933877  0.80701950  0.50627083     0.35200
H1810       H  0.95309931  0.81349131  0.46896104     0.40300
H1811       H  0.04767034  0.70211618  0.50781793     0.39900
H1812       H  0.07539264  0.72713925  0.49709438     0.34800
C1813       C  0.25829513  0.26676389  0.93835755    -0.27000
C1814       C  0.26103824  0.25824226  0.96947957    -0.15000
C1815       C  0.25765474  0.28154548  0.99162129     0.35600
C1816       C  0.25427292  0.31249666  0.98213238    -0.26400
C1817       C  0.25415868  0.32104615  0.95089780    -0.15700
C1818       C  0.25488041  0.29744387  0.92902029     0.36700
N1819       N  0.25235832  0.30440923  0.89709376    -0.89900
H1820       H  0.25945861  0.24946141  0.92069468     0.17800
H1821       H  0.25298806  0.33018866  0.99937960     0.17800
N1822       N  0.25873457  0.27408030  0.02357374    -0.88900
H1823       H  0.23338590  0.29273361  0.88852466     0.35200
H1824       H  0.27186142  0.29605280  0.88600289     0.40300
H1825       H  0.23932890  0.26105937  0.02868796     0.39900
H1826       H  0.25722266  0.29388439  0.03685448     0.34800
C1827       C  0.37294600  0.06323966  0.89602272    -0.27000
C1828       C  0.35527375  0.06270834  0.86932514    -0.15000
C1829       C  0.32341105  0.06732703  0.87111761     0.35600
C1830       C  0.31086633  0.07849889  0.89824793    -0.26400
C1831       C  0.32977972  0.08377454  0.92333575    -0.15700
C1832       C  0.36027725  0.07387646  0.92330376     0.36700
N1833       N  0.37885405  0.07766054  0.95008043    -0.89900
H1834       H  0.39720015  0.05822192  0.89505631     0.17800
H1835       H  0.28706101  0.08545511  0.89889526     0.17800
N1836       N  0.30415584  0.06207489  0.84519761    -0.88900
H1837       H  0.40109950  0.06985726  0.94599231     0.35200
H1838       H  0.36969657  0.06363452  0.96722959     0.40300
H1839       H  0.29297586  0.08252455  0.83980757     0.39900
H1840       H  0.28756944  0.04599492  0.85150035     0.34800
C1841       C  0.40339087  0.31383911  0.91810750    -0.27000
C1842       C  0.42596046  0.32391817  0.89724804    -0.15000
C1843       C  0.42673242  0.35521871  0.88896770     0.35600
C1844       C  0.40384723  0.37502987  0.90028270    -0.26400
C1845       C  0.38035473  0.36402433  0.91936949    -0.15700
C1846       C  0.38066528  0.33339708  0.92890886     0.36700
N1847       N  0.35753380  0.32191090  0.94925154    -0.89900
H1848       H  0.40261341  0.29022071  0.92562136     0.17800
H1849       H  0.40338521  0.39871279  0.89288940     0.17800
N1850       N  0.44972323  0.36656368  0.86829842    -0.88900
H1851       H  0.36832906  0.31303146  0.96863437     0.35200
H1852       H  0.34622106  0.30394407  0.93833610     0.40300
H1853       H  0.47070197  0.36531685  0.87960313     0.39900
H1854       H  0.44602199  0.38971853  0.86349309     0.34800
C1855       C  0.41333011  0.16866279  0.97980803    -0.27000
C1856       C  0.38835719  0.18839687  0.98402839    -0.15000
C1857       C  0.39309504  0.22046770  0.98355395     0.35600
C1858       C  0.42038682  0.23165628  0.97153360    -0.26400
C1859       C  0.44229372  0.21117891  0.96053532    -0.15700
C1860       C  0.44053611  0.17997266  0.96761413     0.36700
N1861       N  0.46485517  0.15964406  0.95879398    -0.89900
H1862       H  0.41047044  0.14412920  0.98196479     0.17800
H1863       H  0.42284424  0.25599151  0.96735567     0.17800
N1864       N  0.37045967  0.24198483  0.99368693    -0.88900
H1865       H  0.45955582  0.13710783  0.96488473     0.35200
H1866       H  0.48416919  0.16571673  0.97139735     0.40300
H1867       H  0.36328789  0.23574031  0.01568557     0.39900
H1868       H  0.35175207  0.24184100  0.97897494     0.34800
C1869       C  0.49097797  0.15177794  0.81519533    -0.27000
C1870       C  0.49038067  0.15176040  0.84728759    -0.15000
C1871       C  0.48495523  0.12433066  0.86326732     0.35600
C1872       C  0.47475933  0.09884193  0.84698650    -0.26400
C1873       C  0.46951768  0.10119485  0.81548463    -0.15700
C1874       C  0.47980363  0.12676491  0.79918208     0.36700
N1875       N  0.47613072  0.12849025  0.76675501    -0.89900
H1876       H  0.49643280  0.17254135  0.80267545     0.17800
H1877       H  0.46700754  0.07880970  0.85947226     0.17800
N1878       N  0.48637693  0.12323979  0.89596807    -0.88900
H1879       H  0.49760057  0.13281253  0.75706310     0.35200
H1880       H  0.46192544  0.14706802  0.76174842     0.40300
H1881       H  0.50173580  0.10595280  0.90208667     0.39900
H1882       H  0.46477138  0.11715823  0.90430954     0.34800
C1883       C  0.34202532  0.23593309  0.09883443    -0.27000
C1884       C  0.37215867  0.22534171  0.10358225    -0.15000
C1885       C  0.37819383  0.19401206  0.09922953     0.35600
C1886       C  0.35514844  0.17483324  0.08797446    -0.26400
C1887       C  0.32601575  0.18615934  0.07936938    -0.15700
C1888       C  0.31914808  0.21678769  0.08645074     0.36700
N1889       N  0.28970621  0.22911898  0.07946154    -0.89900
H1890       H  0.33660797  0.25972603  0.10314361     0.17800
H1891       H  0.36102100  0.15114842  0.08355519     0.17800
N1892       N  0.40747758  0.18099460  0.10597219    -0.88900
H1893       H  0.29297455  0.24767532  0.06472529     0.35200
H1894       H  0.28014273  0.23743441  0.09976353     0.40300
H1895       H  0.41258953  0.18559162  0.12885025     0.39900
H1896       H  0.42393168  0.19149373  0.09211111     0.34800
C1897       C  0.48681998  0.30748463  0.96414480    -0.27000
C1898       C  0.51298332  0.28900087  0.96081896    -0.15000
C1899       C  0.52316865  0.27284367  0.98698192     0.35600
C1900       C  0.50696591  0.27490185  0.01510439    -0.26400
C1901       C  0.48035533  0.29297091  0.01832249    -0.15700
C1902       C  0.47062378  0.30967882  0.99198641     0.36700
N1903       N  0.44406335  0.32888352  0.99224785    -0.89900
H1904       H  0.47801865  0.31976708  0.94450347     0.17800
H1905       H  0.51555261  0.26232702  0.03465423     0.17800
N1906       N  0.55003367  0.25418467  0.98519947    -0.88900
H1907       H  0.44750766  0.34690769  0.00749532     0.35200
H1908       H  0.42513371  0.31591313  0.99903563     0.40300
H1909       H  0.54398565  0.23183856  0.99125404     0.39900
H1910       H  0.56566526  0.26219021  0.00133893     0.34800
C1911       C  0.31528074  0.35322147  0.02408536    -0.27000
C1912       C  0.30916885  0.38414549  0.03043800    -0.15000
C1913       C  0.32010478  0.39734429  0.05750519     0.35600
C1914       C  0.33982012  0.38025519  0.07606414    -0.26400
C1915       C  0.34858861  0.35050459  0.06786481    -0.15700
C1916       C  0.33484130  0.33604042  0.04280946     0.36700
N1917       N  0.34311973  0.30524097  0.03481077    -0.89900
H1918       H  0.30760049  0.34355706  0.00266884     0.17800
H1919       H  0.35025665  0.39095160  0.09570627     0.17800
N1920       N  0.31319710  0.42869423  0.06468597    -0.88900
H1921       H  0.33151452  0.29838107  0.01511491     0.35200
H1922       H  0.33549935  0.29093961  0.05244265     0.40300
H1923       H  0.32356856  0.44254586  0.04810884     0.39900
H1924       H  0.32288895  0.43473806  0.08564811     0.34800
C1925       C  0.11110846  0.87852566  0.90073459    -0.27000
C1926       C  0.14035702  0.86523815  0.90104956    -0.15000
C1927       C  0.14416117  0.83505932  0.89064856     0.35600
C1928       C  0.11884775  0.81834069  0.88106989    -0.26400
C1929       C  0.08955835  0.83145257  0.88011785    -0.15700
C1930       C  0.08564898  0.86218989  0.88949796     0.36700
N1931       N  0.05698242  0.87761015  0.88480551    -0.89900
H1932       H  0.10856406  0.90229335  0.90725424     0.17800
H1933       H  0.12235920  0.79491485  0.87374040     0.17800
N1934       N  0.17395149  0.82144660  0.88909929    -0.88900
H1935       H  0.05865239  0.90059436  0.89116636     0.35200
H1936       H  0.04063880  0.86791682  0.89923129     0.40300
H1937       H  0.17835877  0.81567376  0.86629710     0.39900
H1938       H  0.17352524  0.80117085  0.90182081     0.34800
C1939       C  0.28468584  0.80175039  0.95072549    -0.27000
C1940       C  0.25683952  0.81759753  0.94755222    -0.15000
C1941       C  0.22973329  0.80321773  0.95830842     0.35600
C1942       C  0.23104986  0.77355820  0.97131235    -0.26400
C1943       C  0.25850378  0.75699219  0.97268044    -0.15700
C1944       C  0.28563840  0.77138146  0.96237812     0.36700
N1945       N  0.31392344  0.75465323  0.96283285    -0.89900
H1946       H  0.30554241  0.81248633  0.94267290     0.17800
H1947       H  0.21019019  0.76256583  0.97887780     0.17800
N1948       N  0.20066178  0.81827092  0.95496283    -0.88900
H1949       H  0.31909933  0.74994555  0.98569311     0.35200
H1950       H  0.33175503  0.76813386  0.95425673     0.40300
H1951       H  0.20123647  0.83888155  0.96692061     0.39900
H1952       H  0.18314284  0.80517919  0.96468338     0.34800
C1953       C  0.20382578  0.86235041  0.02517745    -0.27000
C1954       C  0.19951905  0.89360604  0.01891367    -0.15000
C1955       C  0.17666039  0.90974152  0.03487663     0.35600
C1956       C  0.15650095  0.89388360  0.05396827    -0.26400
C1957       C  0.15854167  0.86199290  0.05764082    -0.15700
C1958       C  0.18319190  0.84623013  0.04373720     0.36700
N1959       N  0.18691645  0.81382164  0.04644118    -0.89900
H1960       H  0.22200855  0.84982647  0.01388154     0.17800
H1961       H  0.13852018  0.90666053  0.06534312     0.17800
N1962       N  0.17341307  0.94218162  0.03129467    -0.88900
H1963       H  0.16669850  0.80315695  0.03944041     0.35200
H1964       H  0.19091861  0.80862535  0.06930075     0.40300
H1965       H  0.17549290  0.95224594  0.05285770     0.39900
H1966       H  0.15138057  0.94667188  0.02323263     0.34800
C1967       C  0.30402163  0.93579221  0.83531995    -0.27000
C1968       C  0.31513457  0.92928128  0.86487838    -0.15000
C1969       C  0.34629031  0.93381863  0.87075661     0.35600
C1970       C  0.36529146  0.94635754  0.84787870    -0.26400
C1971       C  0.35372281  0.95555349  0.81907770    -0.15700
C1972       C  0.32284668  0.94923390  0.81253120     0.36700
N1973       N  0.31011988  0.95851097  0.78376057    -0.89900
H1974       H  0.28010575  0.93181782  0.83045328     0.17800
H1975       H  0.38898604  0.95087663  0.85346655     0.17800
N1976       N  0.35869461  0.92597799  0.90001035    -0.88900
H1977       H  0.28684752  0.95313374  0.78291966     0.35200
H1978       H  0.32081208  0.94563251  0.76667274     0.40300
H1979       H  0.36839612  0.94566777  0.90938390     0.39900
H1980       H  0.37619789  0.91001960  0.89657921     0.34800
C1981       C  0.25893336  0.01294342  0.00008216    -0.27000
C1982       C  0.24468945  0.01093180  0.97126138    -0.15000
C1983       C  0.23266379  0.03833281  0.95849263     0.35600
C1984       C  0.23565480  0.06647989  0.97439050    -0.26400
C1985       C  0.25071776  0.06852411  0.00278082    -0.15700
C1986       C  0.26204583  0.04111866  0.01581027     0.36700
N1987       N  0.27693541  0.04197854  0.04502776    -0.89900
H1988       H  0.26762715  0.99226518  0.01063273     0.17800
H1989       H  0.22760616  0.08729637  0.96365503     0.17800
N1990       N  0.21814677  0.03781354  0.92904134    -0.88900
H1991       H  0.28404590  0.02008254  0.05155105     0.35200
H1992       H  0.26070377  0.04897644  0.06119886     0.40300
H1993       H  0.23478956  0.03191552  0.91284446     0.39900
H1994       H  0.21032057  0.05962174  0.92303579     0.34800
C1995       C  0.59435122  0.19750273  0.78758724    -0.27000
C1996       C  0.60644805  0.17074567  0.80106892    -0.15000
C1997       C  0.60935532  0.16944653  0.83300240     0.35600
C1998       C  0.59865808  0.19406162  0.85083877    -0.26400
C1999       C  0.58344278  0.21944589  0.83768358    -0.15700
C2000       C  0.58237153  0.22162672  0.80554919     0.36700
N2001       N  0.56712182  0.24706105  0.79135715    -0.89900
H2002       H  0.59309901  0.19905244  0.76290850     0.17800
H2003       H  0.59955319  0.19208536  0.87554498     0.17800
N2004       N  0.62304105  0.14313624  0.84722678    -0.88900
H2005       H  0.56749970  0.24483746  0.76754946     0.35200
H2006       H  0.57961237  0.26675652  0.79649610     0.40300
H2007       H  0.60868027  0.12445316  0.84332472     0.39900
H2008       H  0.62400060  0.14598180  0.87094033     0.34800
C2009       C  0.51692301  0.04027843  0.71377201    -0.27000
C2010       C  0.53466797  0.04799930  0.73958944    -0.15000
C2011       C  0.52505035  0.03645559  0.76831013     0.35600
C2012       C  0.49730789  0.01988623  0.77073794    -0.26400
C2013       C  0.47779811  0.01514484  0.74546701    -0.15700
C2014       C  0.48908525  0.02397587  0.71629809     0.36700
N2015       N  0.47305680  0.01671641  0.68872435    -0.89900
H2016       H  0.52453152  0.04734690  0.69121572     0.17800
H2017       H  0.48999293  0.01226716  0.79319321     0.17800
N2018       N  0.54254844  0.04279013  0.79530766    -0.88900
H2019       H  0.45197510  0.02791060  0.68853230     0.35200
H2020       H  0.46929807  0.99310773  0.68825353     0.40300
H2021       H  0.56264857  0.02990449  0.79396733     0.39900
H2022       H  0.53101296  0.03512998  0.81487335     0.34800
C2023       C  0.87337742  0.13444342  0.80217105    -0.27000
C2024       C  0.89641332  0.11361948  0.79436147    -0.15000
C2025       C  0.92562439  0.11692225  0.80776036     0.35600
C2026       C  0.93103780  0.14077617  0.82855705    -0.26400
C2027       C  0.90790209  0.16181480  0.83629233    -0.15700
C2028       C  0.87864150  0.15822022  0.82286026     0.36700
N2029       N  0.85398773  0.17869972  0.82985612    -0.89900
H2030       H  0.85091570  0.13234137  0.79197633     0.17800
H2031       H  0.95366065  0.14314397  0.83826487     0.17800
N2032       N  0.95044516  0.09708611  0.79994424    -0.88900
H2033       H  0.84677063  0.18892946  0.80947158     0.35200
H2034       H  0.83580412  0.16585025  0.83866348     0.40300
H2035       H  0.95372287  0.09786400  0.77627060     0.39900
H2036       H  0.94415622  0.07490748  0.80616492     0.34800
C2037       C  0.73945402  0.08682490  0.76993652    -0.27000
C2038       C  0.72303112  0.09397412  0.74305207    -0.15000
C2039       C  0.73736525  0.08739811  0.71455645     0.35600
C2040       C  0.76679106  0.07497955  0.71354430    -0.26400
C2041       C  0.78409087  0.06937332  0.74000818    -0.15700
C2042       C  0.77002488  0.07523875  0.76871749     0.36700
N2043       N  0.78691479  0.07034737  0.79640388    -0.89900
H2044       H  0.72882806  0.09121811  0.79191656     0.17800
H2045       H  0.77661107  0.07040458  0.69122504     0.17800
N2046       N  0.72230379  0.09188406  0.68582942    -0.88900
H2047       H  0.77336126  0.07553784  0.81546452     0.35200
H2048       H  0.80509667  0.08585914  0.79648980     0.40300
H2049       H  0.71877938  0.11524221  0.68220693     0.39900
H2050       H  0.70136289  0.08038508  0.68629211     0.34800
C2051       C  0.99169334  0.12690160  0.63519448    -0.27000
C2052       C  0.00144387  0.14649390  0.65854725    -0.15000
C2053       C  0.99625016  0.13846756  0.68927919     0.35600
C2054       C  0.97551196  0.11511423  0.69577139    -0.26400
C2055       C  0.96069801  0.09957505  0.67197457    -0.15700
C2056       C  0.97108992  0.10328461  0.64172694     0.36700
N2057       N  0.95846863  0.08552329  0.61737528    -0.89900
H2058       H  0.99634204  0.13268886  0.61148715     0.17800
H2059       H  0.96899993  0.11092856  0.71937208     0.17800
N2060       N  0.00913083  0.15559613  0.71406626    -0.88900
H2061       H  0.97651713  0.07452205  0.60611695     0.35200
H2062       H  0.94810196  0.10044339  0.60181737     0.40300
H2063       H  0.02445509  0.17200376  0.70576479     0.39900
H2064       H  0.02216497  0.14041381  0.72716857     0.34800
C2065       C  0.97200469  0.29964625  0.74475570    -0.27000
C2066       C  0.98420097  0.27154636  0.73445931    -0.15000
C2067       C  0.98332965  0.24641429  0.75487419     0.35600
C2068       C  0.96919282  0.24902049  0.78367632    -0.26400
C2069       C  0.95602061  0.27650221  0.79358580    -0.15700
C2070       C  0.95801110  0.30226876  0.77410422     0.36700
N2071       N  0.94440090  0.33058980  0.78326892    -0.89900
H2072       H  0.97180059  0.31916210  0.72943320     0.17800
H2073       H  0.96828360  0.22909855  0.79842382     0.17800
N2074       N  0.99666794  0.21779100  0.74634534    -0.88900
H2075       H  0.92782717  0.33644517  0.76709556     0.35200
H2076       H  0.96135710  0.34741256  0.78272131     0.40300
H2077       H  0.97963510  0.20104569  0.74763571     0.39900
H2078       H  0.01334237  0.21251929  0.76252096     0.34800
C2079       C  0.67381437  0.16070824  0.62114197    -0.27000
C2080       C  0.66877895  0.12951136  0.62775666    -0.15000
C2081       C  0.68181197  0.10714940  0.60834129     0.35600
C2082       C  0.70101817  0.11663166  0.58409250    -0.26400
C2083       C  0.70745299  0.14776052  0.57926819    -0.15700
C2084       C  0.69312382  0.16987975  0.59744674     0.36700
N2085       N  0.69850769  0.20180576  0.59210937    -0.89900
H2086       H  0.66340910  0.17842831  0.63501804     0.17800
H2087       H  0.71246538  0.09965682  0.57016255     0.17800
N2088       N  0.67630303  0.07515130  0.61359299    -0.88900
H2089       H  0.70751049  0.21124952  0.61208659     0.35200
H2090       H  0.67747247  0.21233177  0.58782907     0.40300
H2091       H  0.68689350  0.06913462  0.63411012     0.39900
H2092       H  0.68678918  0.06200158  0.59655456     0.34800
C2093       C  0.81304263  0.05602676  0.62234199    -0.27000
C2094       C  0.84322288  0.04579867  0.62095354    -0.15000
C2095       C  0.86035060  0.04915020  0.59391909     0.35600
C2096       C  0.85002981  0.06947850  0.57185941    -0.26400
C2097       C  0.82297374  0.08595658  0.57704067    -0.15700
C2098       C  0.80255087  0.07636518  0.60022338     0.36700
N2099       N  0.77234320  0.08888310  0.60272851    -0.89900
H2100       H  0.79937970  0.05201006  0.64269980     0.17800
H2101       H  0.86492996  0.07496416  0.55275056     0.17800
N2102       N  0.88991751  0.03543006  0.59029266    -0.88900
H2103       H  0.75676852  0.07076057  0.60210527     0.35200
H2104       H  0.77023655  0.09953389  0.62402603     0.40300
H2105       H  0.88744578  0.01178192  0.59294748     0.39900
H2106       H  0.90434071  0.04336182  0.60751464     0.34800
C2107       C  0.89676360  0.22278328  0.53256676    -0.27000
C2108       C  0.88964272  0.19173570  0.53070773    -0.15000
C2109       C  0.91062707  0.16946852  0.54052113     0.35600
C2110       C  0.93687048  0.17857952  0.55590898    -0.26400
C2111       C  0.94169123  0.20956313  0.56199574    -0.15700
C2112       C  0.92298458  0.23200795  0.54797055     0.36700
N2113       N  0.92966829  0.26406769  0.54956820    -0.89900
H2114       H  0.88073975  0.23983785  0.52434601     0.17800
H2115       H  0.95155399  0.16128143  0.56594296     0.17800
N2116       N  0.90385045  0.13757246  0.53739950    -0.88900
H2117       H  0.92815775  0.27143519  0.57217751     0.35200
H2118       H  0.95201737  0.26746462  0.54169046     0.40300
H2119       H  0.90322701  0.12778462  0.55925385     0.39900
H2120       H  0.92175646  0.12737332  0.52521119     0.34800
C2121       C  0.79918151  0.93888830  0.66791104    -0.27000
C2122       C  0.80988538  0.93585862  0.63753195    -0.15000
C2123       C  0.84024749  0.94471838  0.63111114     0.35600
C2124       C  0.85900507  0.95602130  0.65495011    -0.26400
C2125       C  0.84784881  0.96051338  0.68510357    -0.15700
C2126       C  0.81743574  0.95159842  0.69130344     0.36700
N2127       N  0.80474853  0.95558890  0.72127098    -0.89900
H2128       H  0.77592940  0.93225330  0.67342483     0.17800
H2129       H  0.88220726  0.96277854  0.64944820     0.17800
N2130       N  0.85196501  0.94237869  0.60044796    -0.88900
H2131       H  0.79756756  0.93420442  0.72928436     0.35200
H2132       H  0.78546574  0.96962756  0.71939120     0.40300
H2133       H  0.85254497  0.91918588  0.59471639     0.39900
H2134       H  0.87451343  0.95025309  0.59934394     0.34800
C2135       C  0.72459744  0.03376526  0.52298948    -0.27000
C2136       C  0.74704284  0.01038071  0.52265133    -0.15000
C2137       C  0.77362323  0.01546975  0.50489759     0.35600
C2138       C  0.77821423  0.04381953  0.49017660    -0.26400
C2139       C  0.75717188  0.06819156  0.49282770    -0.15700
C2140       C  0.72927449  0.06235691  0.50808104     0.36700
N2141       N  0.70654021  0.08600302  0.50990979    -0.89900
H2142       H  0.70347916  0.03000944  0.53546591     0.17800
H2143       H  0.79985735  0.04768897  0.47861077     0.17800
N2144       N  0.79696449  0.99254879  0.50290786    -0.88900
H2145       H  0.68741108  0.07828645  0.52208769     0.35200
H2146       H  0.69914191  0.09055590  0.48764402     0.40300
H2147       H  0.81724983  0.00178942  0.51144276     0.39900
H2148       H  0.80042030  0.98739570  0.47980937     0.34800
C2149       C  0.69834827  0.98211814  0.68204002    -0.27000
C2150       C  0.68169006  0.96970161  0.65770018    -0.15000
C2151       C  0.64960560  0.97308189  0.65735611     0.35600
C2152       C  0.63549022  0.99248651  0.67823997    -0.26400
C2153       C  0.65266363  0.00897320  0.69957185    -0.15700
C2154       C  0.68402864  0.00156515  0.70324355     0.36700
N2155       N  0.70207804  0.01409281  0.72733904    -0.89900
H2156       H  0.72275757  0.97813533  0.68361248     0.17800
H2157       H  0.61107793  0.99630899  0.67620413     0.17800
N2158       N  0.63121859  0.95742483  0.63529134    -0.88900
H2159       H  0.69172780  0.00842176  0.74819884     0.35200
H2160       H  0.70224681  0.03777292  0.72503424     0.40300
H2161       H  0.61935400  0.97378583  0.62248913     0.39900
H2162       H  0.61516429  0.94410851  0.64707535     0.34800
C2163       C  0.19020017  0.13131007  0.92774253    -0.27000
C2164       C  0.21588853  0.14903006  0.92028952    -0.15000
C2165       C  0.22190666  0.15721380  0.88970047     0.35600
C2166       C  0.20291827  0.14634713  0.86688872    -0.26400
C2167       C  0.17798973  0.12737094  0.87379336    -0.15700
C2168       C  0.17119828  0.11994349  0.90450919     0.36700
N2169       N  0.14599449  0.10014133  0.91184459    -0.89900
H2170       H  0.18605316  0.12492038  0.95136160     0.17800
H2171       H  0.20783217  0.15275948  0.84340603     0.17800
N2172       N  0.24783187  0.17602765  0.88190987    -0.88900
H2173       H  0.14432378  0.09697836  0.93551328     0.35200
H2174       H  0.15081619  0.07867357  0.90248240     0.40300
H2175       H  0.24425930  0.19755469  0.89164141     0.39900
H2176       H  0.24938148  0.17936052  0.85824947     0.34800
C2177       C  0.23527333  0.05608222  0.74336321    -0.27000
C2178       C  0.22702540  0.08622361  0.75194203    -0.15000
C2179       C  0.25093226  0.10570111  0.76160306     0.35600
C2180       C  0.28153166  0.09532142  0.76187304    -0.26400
C2181       C  0.28996785  0.06531534  0.75328240    -0.15700
C2182       C  0.26598357  0.04550416  0.74412372     0.36700
N2183       N  0.27189070  0.01453645  0.73545653    -0.89900
H2184       H  0.21758435  0.04018189  0.73659569     0.17800
H2185       H  0.29891479  0.11115427  0.76953652     0.17800
N2186       N  0.24442583  0.13610248  0.77190817    -0.88900
H2187       H  0.28158311  0.00329142  0.75413537     0.35200
H2188       H  0.28760031  0.01457476  0.71736897     0.40300
H2189       H  0.25691000  0.15141374  0.75835562     0.39900
H2190       H  0.25208033  0.13808502  0.79445250     0.34800
C2191       C  0.15272893  0.98120575  0.80731762    -0.27000
C2192       C  0.16385716  0.01116501  0.80729441    -0.15000
C2193       C  0.19231812  0.01766679  0.82089355     0.35600
C2194       C  0.20793119  0.99467042  0.83672561    -0.26400
C2195       C  0.19502598  0.96560493  0.83980984    -0.15700
C2196       C  0.16783125  0.95831189  0.82411339     0.36700
N2197       N  0.15476607  0.92823827  0.82682986    -0.89900
H2198       H  0.13077731  0.97643049  0.79697545     0.17800
H2199       H  0.22860748  0.00035493  0.84907724     0.17800
N2200       N  0.20431265  0.04817602  0.82043392    -0.88900
H2201       H  0.13517774  0.92646906  0.81332409     0.35200
H2202       H  0.14752909  0.92527580  0.84946460     0.40300
H2203       H  0.22617213  0.04743090  0.81068531     0.39900
H2204       H  0.20656451  0.05557317  0.84304418     0.34800
C2205       C  0.08440205  0.21985910  0.69928627    -0.27000
C2206       C  0.08817972  0.21788124  0.66746145    -0.15000
C2207       C  0.10334988  0.19164602  0.65550919     0.35600
C2208       C  0.11335847  0.16799175  0.67550500    -0.26400
C2209       C  0.10910685  0.17009386  0.70730424    -0.15700
C2210       C  0.09442902  0.19658141  0.71901075     0.36700
N2211       N  0.08871068  0.19966897  0.75117726    -0.89900
H2212       H  0.07236957  0.23916831  0.70915287     0.17800
H2213       H  0.12495290  0.14813034  0.66626864     0.17800
N2214       N  0.10834365  0.18888527  0.62313212    -0.88900
H2215       H  0.06515734  0.20169007  0.75456203     0.35200
H2216       H  0.09904104  0.21985961  0.75865766     0.40300
H2217       H  0.11940773  0.16828951  0.61805251     0.39900
H2218       H  0.12325738  0.20641313  0.61655672     0.34800
C2219       C  0.01500822  0.04034750  0.78639547    -0.27000
C2220       C  0.03627775  0.04816490  0.76304944    -0.15000
C2221       C  0.02891089  0.04032437  0.73280594     0.35600
C2222       C  0.00052606  0.02712122  0.72621536    -0.26400
C2223       C  0.97773127  0.02216925  0.74883451    -0.15700
C2224       C  0.98591153  0.02733095  0.77958580     0.36700
N2225       N  0.96463007  0.02013288  0.80362350    -0.89900
H2226       H  0.02072075  0.04516840  0.80997321     0.17800
H2227       H  0.99579293  0.02230709  0.70239529     0.17800
N2228       N  0.05012119  0.04586332  0.70833592    -0.88900
H2229       H  0.97401441  0.02540872  0.82490922     0.35200
H2230       H  0.96123518  0.99645581  0.80339506     0.40300
H2231       H  0.03960531  0.06030544  0.69242028     0.11100
H2232       H  0.05476633  0.02501847  0.69759240     0.34800
C2233       C  0.07736422  0.19468423  0.85250533    -0.27000
C2234       C  0.06734772  0.17323971  0.83073331    -0.15000
C2235       C  0.03619730  0.17278216  0.82255793     0.35600
C2236       C  0.01566298  0.19307172  0.83650079    -0.26400
C2237       C  0.02537714  0.21356814  0.85901511    -0.15700
C2238       C  0.05653178  0.21436821  0.86716535     0.36700
N2239       N  0.06727835  0.23406551  0.89092704    -0.89900
H2240       H  0.10113167  0.19495581  0.85941529     0.17800
H2241       H  0.99164391  0.19176208  0.83070828     0.17800
N2242       N  0.02515669  0.15116583  0.80063925    -0.88900
H2243       H  0.06185570  0.25659765  0.88499048     0.35200
H2244       H  0.05555690  0.22861508  0.91112111     0.40300
H2245       H  0.01465400  0.16314464  0.78290496     0.39900
H2246       H  0.00847085  0.13765235  0.81131067     0.34800
C2247       C  0.90663091  0.39150600  0.29926684    -0.27000
C2248       C  0.91370804  0.39880283  0.32971512    -0.15000
C2249       C  0.90994173  0.42931362  0.33965520     0.35600
C2250       C  0.89889614  0.45151779  0.31931305    -0.26400
C2251       C  0.89148659  0.44401643  0.28906911    -0.15700
C2252       C  0.89566615  0.41368039  0.27897840     0.36700
N2253       N  0.88954097  0.40531111  0.24793483    -0.89900
H2254       H  0.90943161  0.36832321  0.29098704     0.17800
H2255       H  0.89598001  0.47477884  0.32734990     0.17800
N2256       N  0.91680733  0.43797758  0.37040542    -0.88900
H2257       H  0.87326082  0.38780663  0.24811191     0.35200
H2258       H  0.90970158  0.39665406  0.23833806     0.40300
H2259       H  0.89703390  0.44757800  0.37987927     0.39900
H2260       H  0.93357761  0.45499415  0.36963711     0.34800
C2261       C  0.95045367  0.28434306  0.24371333    -0.27000
C2262       C  0.98181812  0.28040334  0.23743782    -0.15000
C2263       C  0.00124344  0.27165749  0.26173199     0.35600
C2264       C  0.98901616  0.26881306  0.29163364    -0.26400
C2265       C  0.95780442  0.27463934  0.29824087    -0.15700
C2266       C  0.93835497  0.28158040  0.27345848     0.36700
N2267       N  0.90643564  0.28721538  0.27835242    -0.89900
H2268       H  0.93518465  0.29092739  0.22534765     0.17800
H2269       H  0.00458072  0.26354652  0.31012826     0.17800
N2270       N  0.03356512  0.26736368  0.25749730    -0.88900
H2271       H  0.89407739  0.27185756  0.26492280     0.35200
H2272       H  0.90151239  0.30937474  0.27074326     0.40300
H2273       H  0.04002224  0.27073468  0.23472948     0.39900
H2274       H  0.03851443  0.24454617  0.26272587     0.34800
C2275       C  0.07970079  0.36797688  0.35789333    -0.27000
C2276       C  0.07503708  0.37305034  0.32650848    -0.15000
C2277       C  0.05106491  0.35771582  0.31157359     0.35600
C2278       C  0.03022385  0.34057062  0.32899756    -0.26400
C2279       C  0.03321697  0.33818642  0.36096887    -0.15700
C2280       C  0.05917590  0.35062785  0.37533235     0.36700
N2281       N  0.06410429  0.34832843  0.40776978    -0.89900
H2282       H  0.09848046  0.37926409  0.36939387     0.17800
H2283       H  0.01019659  0.33119381  0.31789672     0.17800
N2284       N  0.04596444  0.36119107  0.27942480    -0.88900
H2285       H  0.08492896  0.33702949  0.41100108     0.35200
H2286       H  0.04752480  0.33472285  0.41833379     0.40300
H2287       H  0.06533825  0.35322073  0.26782537     0.39900
H2288       H  0.04344272  0.38448668  0.27466117     0.34800
C2289       C  0.87532035  0.20562039  0.41014192    -0.27000
C2290       C  0.87444670  0.23689322  0.41725258    -0.15000
C2291       C  0.84945248  0.24825309  0.43456641     0.35600
C2292       C  0.82556068  0.22866104  0.44327771    -0.26400
C2293       C  0.82617858  0.19738960  0.43632968    -0.15700
C2294       C  0.85149958  0.18570927  0.41955753     0.36700
N2295       N  0.85300741  0.15373052  0.41217676    -0.89900
H2296       H  0.89419402  0.19686406  0.39662082     0.17800
H2297       H  0.80697978  0.23776753  0.45698987     0.17800
N2298       N  0.84867795  0.27978320  0.44383288    -0.88900
H2299       H  0.87307975  0.14881143  0.40006029     0.35200
H2300       H  0.83482070  0.14894003  0.39751422     0.40300
H2301       H  0.86718052  0.28343071  0.45843805     0.39900
H2302       H  0.82893095  0.28443418  0.45658482     0.34800
C2303       C  0.01478515  0.28026940  0.48741040    -0.27000
C2304       C  0.99219245  0.30302964  0.48563670    -0.15000
C2305       C  0.98685712  0.32123835  0.51200261     0.35600
C2306       C  0.00242918  0.31487323  0.53967338    -0.26400
C2307       C  0.02381837  0.29086231  0.54184400    -0.15700
C2308       C  0.03065454  0.27433522  0.51483930     0.36700
N2309       N  0.05294697  0.25031041  0.51562437    -0.89900
H2310       H  0.01996599  0.26663079  0.46737368     0.17800
H2311       H  0.99591292  0.32714269  0.56015494     0.17800
N2312       N  0.96434529  0.34503805  0.51192938    -0.88900
H2313       H  0.06983727  0.25533091  0.49937330     0.35200
H2314       H  0.04226321  0.22996313  0.50913653     0.40300
H2315       H  0.94336267  0.33554952  0.50563918     0.39900
H2316       H  0.97060115  0.36131672  0.49551846     0.34800
C2317       C  0.43150980  0.44360396  0.19335750    -0.27000
C2318       C  0.40191566  0.45634494  0.19386860    -0.15000
C2319       C  0.37952098  0.44437378  0.17436822     0.35600
C2320       C  0.38624780  0.41847426  0.15661053    -0.26400
C2321       C  0.41529074  0.40457019  0.15741680    -0.15700
C2322       C  0.43854178  0.41821725  0.17509977     0.36700
N2323       N  0.46881716  0.40572026  0.17656732    -0.89900
H2324       H  0.44889852  0.45249582  0.20853012     0.17800
H2325       H  0.36823667  0.40849739  0.14300890     0.17800
N2326       N  0.34931452  0.45704352  0.17418832    -0.88900
H2327       H  0.47850128  0.40641274  0.15467218     0.35200
H2328       H  0.46741567  0.38292888  0.18374442     0.40300
H2329       H  0.33395906  0.43984163  0.18059248     0.39900
H2330       H  0.34426881  0.46360327  0.15174737     0.34800
C2331       C  0.28026165  0.45882648  0.26097355    -0.27000
C2332       C  0.28724876  0.49005007  0.25619003    -0.15000
C2333       C  0.26264332  0.50999141  0.24943445     0.35600
C2334       C  0.23227025  0.49852836  0.24789606    -0.26400
C2335       C  0.22561597  0.46740786  0.25348301    -0.15700
C2336       C  0.25015821  0.44746146  0.25982096     0.36700
N2337       N  0.24441426  0.41550705  0.26524561    -0.89900
H2338       H  0.29846207  0.44281765  0.26604793     0.17800
H2339       H  0.21367021  0.51431598  0.24351881     0.17800
N2340       N  0.26811097  0.54189789  0.24459116    -0.88900
H2341       H  0.26475585  0.40384313  0.26994187     0.35200
H2342       H  0.23582096  0.40625879  0.24500477     0.40300
H2343       H  0.25522259  0.55407790  0.26068366     0.39900
H2344       H  0.26006855  0.54766921  0.22284383     0.34800
C2345       C  0.43920134  0.21018176  0.40519316    -0.27000
C2346       C  0.43803356  0.22769236  0.37820868    -0.15000
C2347       C  0.41432099  0.22240906  0.35710143     0.35600
C2348       C  0.39027584  0.20291657  0.36498798    -0.26400
C2349       C  0.38993371  0.18769413  0.39317184    -0.15700
C2350       C  0.41534307  0.19008711  0.41281205     0.36700
N2351       N  0.41666279  0.17374298  0.44120919    -0.89900
H2352       H  0.45770142  0.21335519  0.42119473     0.17800
H2353       H  0.37136057  0.20020759  0.34927025     0.17800
N2354       N  0.41440569  0.23713390  0.32775012    -0.88900
H2355       H  0.39756955  0.17973179  0.45436657     0.35200
H2356       H  0.41553176  0.15033732  0.43649728     0.40300
H2357       H  0.39432904  0.24996874  0.32576842     0.39900
H2358       H  0.41413026  0.22017603  0.31092299     0.34800
C2359       C  0.46793175  0.43117541  0.28519165    -0.27000
C2360       C  0.47130518  0.45907824  0.30034708    -0.15000
C2361       C  0.48984259  0.46122010  0.32639305     0.35600
C2362       C  0.50033702  0.43418534  0.33996352    -0.26400
C2363       C  0.49111244  0.40591361  0.32822007    -0.15700
C2364       C  0.47662929  0.40413338  0.29962165     0.36700
N2365       N  0.46826956  0.37505850  0.28686658    -0.89900
H2366       H  0.45389870  0.43007323  0.26483277     0.17800
H2367       H  0.51212414  0.43511317  0.36170183     0.17800
N2368       N  0.49383053  0.49016964  0.34133831    -0.88900
H2369       H  0.48840901  0.36328289  0.28166556     0.35200
H2370       H  0.45671768  0.37796223  0.26617919     0.40300
H2371       H  0.50621439  0.50426336  0.32644781     0.39900
H2372       H  0.50707588  0.48758173  0.36102983     0.34800
C2373       C  0.44350426  0.29484836  0.26753101    -0.27000
C2374       C  0.47369149  0.28587055  0.27415035    -0.15000
C2375       C  0.49155414  0.27307203  0.25045889     0.35600
C2376       C  0.47917631  0.27075975  0.22049262    -0.26400
C2377       C  0.44947685  0.28151084  0.21372688    -0.15700
C2378       C  0.43128584  0.29288827  0.23795846     0.36700
N2379       N  0.40048718  0.30302506  0.23237649    -0.89900
H2380       H  0.42932811  0.30415233  0.28567076     0.17800
H2381       H  0.49336893  0.26217871  0.20204565     0.17800
N2382       N  0.52245404  0.26380939  0.25647545    -0.88900
H2383       H  0.39035299  0.31127792  0.25243499     0.35200
H2384       H  0.38776857  0.28395300  0.22571140     0.40300
H2385       H  0.53479158  0.28339521  0.26235973     0.39900
H2386       H  0.53260399  0.25512808  0.23661480     0.34800
C2387       C  0.20706593  0.44260770  0.41811685    -0.27000
C2388       C  0.21486147  0.41179628  0.42324434    -0.15000
C2389       C  0.20226733  0.38914715  0.40439956     0.35600
C2390       C  0.18303006  0.39749417  0.38025208    -0.26400
C2391       C  0.17610159  0.42838606  0.37399059    -0.15700
C2392       C  0.18797898  0.45108839  0.39352978     0.36700
N2393       N  0.18157414  0.48273130  0.38797805    -0.89900
H2394       H  0.21691440  0.46025654  0.43234789     0.17800
H2395       H  0.17380428  0.37946941  0.36605390     0.17800
N2396       N  0.20891165  0.35749252  0.40982807    -0.88900
H2397       H  0.20235556  0.49419484  0.38501162     0.35200
H2398       H  0.17073987  0.49155821  0.40739575     0.40300
H2399       H  0.21890244  0.34848186  0.39003699     0.39900
H2400       H  0.18822713  0.34608785  0.41363168     0.34800
C2401       C  0.37370171  0.46810881  0.42276449    -0.27000
C2402       C  0.34194248  0.46678428  0.42651807    -0.15000
C2403       C  0.32257680  0.48373867  0.40708742     0.35600
C2404       C  0.33507296  0.49759564  0.38133218    -0.26400
C2405       C  0.36637195  0.49482232  0.37509978    -0.15700
C2406       C  0.38630490  0.48208732  0.39696383     0.36700
N2407       N  0.41871618  0.48052147  0.39138736    -0.89900
H2408       H  0.38849843  0.45570595  0.43830663     0.17800
H2409       H  0.32003505  0.50863979  0.36501056     0.17800
N2410       N  0.29033494  0.48667616  0.41255291    -0.88900
H2411       H  0.42968049  0.46839942  0.40884766     0.35200
H2412       H  0.42719428  0.50284643  0.39231044     0.40300
H2413       H  0.28702893  0.49481234  0.43479950     0.39900
H2414       H  0.27982864  0.46535611  0.41054545     0.34800
C2415       C  0.39304372  0.33310817  0.47757282    -0.27000
C2416       C  0.39153253  0.36321107  0.48796624    -0.15000
C2417       C  0.41691758  0.38269724  0.48428770     0.35600
C2418       C  0.44017659  0.37423564  0.46414283    -0.26400
C2419       C  0.43815172  0.34650916  0.44825169    -0.15700
C2420       C  0.41657680  0.32426220  0.45780308     0.36700
N2421       N  0.41716122  0.29376852  0.44550957    -0.89900
H2422       H  0.37384832  0.31788515  0.48149122     0.17800
H2423       H  0.45789408  0.39067015  0.45857903     0.17800
N2424       N  0.41791323  0.41238171  0.49805578    -0.88900
H2425       H  0.39930263  0.28063829  0.45460337     0.35200
H2426       H  0.43749013  0.28346809  0.45268626     0.40300
H2427       H  0.41572938  0.40955835  0.52172043     0.39900
H2428       H  0.39936872  0.42527923  0.49034980     0.34800
C2429       C  0.29643241  0.28304360  0.46270234    -0.27000
C2430       C  0.26980921  0.29921183  0.47109437    -0.15000
C2431       C  0.24133454  0.28397955  0.46766603     0.35600
C2432       C  0.24042227  0.25397148  0.45521160    -0.26400
C2433       C  0.26725018  0.23929750  0.44466524    -0.15700
C2434       C  0.29544577  0.25435913  0.44898592     0.36700
N2435       N  0.32389651  0.24119959  0.43948243    -0.89900
H2436       H  0.31876805  0.29338395  0.46545358     0.17800
H2437       H  0.21861126  0.24250398  0.45290333     0.17800
N2438       N  0.21312203  0.29846630  0.47584240    -0.88900
H2439       H  0.32359238  0.23908887  0.41569964     0.35200
H2440       H  0.32624431  0.21965652  0.44960396     0.40300
H2441       H  0.21096235  0.31854240  0.46299871     0.39900
H2442       H  0.21404982  0.30426783  0.49899747     0.34800
C2443       C  0.11349106  0.74887798  0.40730358    -0.27000
C2444       C  0.08764132  0.73730799  0.39239826    -0.15000
C2445       C  0.08551690  0.70562625  0.38675574     0.35600
C2446       C  0.11019159  0.68643082  0.39479089    -0.26400
C2447       C  0.13684223  0.69844054  0.40811234    -0.15700
C2448       C  0.13797424  0.72988822  0.41515967     0.36700
N2449       N  0.16414119  0.74280517  0.42994281    -0.89900
H2450       H  0.11506139  0.77312978  0.41222430     0.17800
H2451       H  0.10920477  0.66230247  0.38927473     0.17800
N2452       N  0.05941006  0.69341466  0.37113767    -0.88900
H2453       H  0.15686832  0.75306375  0.45029193     0.35200
H2454       H  0.17310819  0.75991275  0.41574736     0.40300
H2455       H  0.04056755  0.69559375  0.38575731     0.39900
H2456       H  0.06223212  0.66998517  0.36725223     0.34800
C2457       C  0.27695943  0.79067656  0.44857889    -0.27000
C2458       C  0.25577274  0.79850264  0.47163223    -0.15000
C2459       C  0.23708250  0.77542481  0.48412525     0.35600
C2460       C  0.23926480  0.74536627  0.47316212    -0.26400
C2461       C  0.25947293  0.73758809  0.44938070    -0.15700
C2462       C  0.27865688  0.76047034  0.43695360     0.36700
N2463       N  0.29954463  0.75308523  0.41261051    -0.89900
H2464       H  0.29076259  0.80854823  0.43827194     0.17800
H2465       H  0.22372681  0.72826808  0.48214472     0.17800
N2466       N  0.21506207  0.78269432  0.50735702    -0.88900
H2467       H  0.31248426  0.77228889  0.40655786     0.35200
H2468       H  0.28658197  0.74747750  0.39339825     0.40300
H2469       H  0.21970430  0.76912867  0.52652004     0.39900
H2470       H  0.19343875  0.77663300  0.49928899     0.34800
C2471       C  0.16560575  0.64695486  0.53122621    -0.27000
C2472       C  0.19416651  0.65891874  0.52278134    -0.15000
C2473       C  0.20470456  0.68602361  0.53711151     0.35600
C2474       C  0.18436344  0.70273276  0.55567878    -0.26400
C2475       C  0.15433384  0.69252247  0.56035681    -0.15700
C2476       C  0.14557137  0.66360971  0.54956849     0.36700
N2477       N  0.11591146  0.65145276  0.55656367    -0.89900
H2478       H  0.15761053  0.62579325  0.52112602     0.17800
H2479       H  0.19158758  0.72435876  0.56531667     0.17800
N2480       N  0.23489683  0.69807046  0.53228788    -0.88900
H2481       H  0.11884992  0.63049810  0.56777081     0.35200
H2482       H  0.10456272  0.64735282  0.53597753     0.40300
H2483       H  0.24823305  0.68332425  0.51916663     0.39900
H2484       H  0.24554006  0.69921056  0.55362844     0.34800
C2485       C  0.29826140  0.62222741  0.33115441    -0.27000
C2486       C  0.30778405  0.62891763  0.36133092    -0.15000
C2487       C  0.33904097  0.62567652  0.36826685     0.35600
C2488       C  0.35902293  0.61288925  0.34622766    -0.26400
C2489       C  0.34869450  0.60322684  0.31711916    -0.15700
C2490       C  0.31807660  0.60944152  0.30932605     0.36700
N2491       N  0.30580845  0.60133100  0.28017937    -0.89900
H2492       H  0.27462503  0.62554368  0.32462474     0.17800
H2493       H  0.38266116  0.60896203  0.35245856     0.17800
N2494       N  0.35037108  0.63485468  0.39764746    -0.88900
H2495       H  0.30790845  0.57771848  0.27750904     0.35200
H2496       H  0.31865511  0.61229375  0.26317912     0.40300
H2497       H  0.34752319  0.65855559  0.39929734     0.39900
H2498       H  0.37386047  0.63071092  0.39917307     0.34800
C2499       C  0.27006937  0.54580068  0.49533710    -0.27000
C2500       C  0.24397786  0.54824384  0.47698338    -0.15000
C2501       C  0.22338615  0.52304249  0.47647331     0.35600
C2502       C  0.23048773  0.49567204  0.49219633    -0.26400
C2503       C  0.25756326  0.49273083  0.50910554    -0.15700
C2504       C  0.27676241  0.51874405  0.51152012     0.36700
N2505       N  0.30404184  0.51727228  0.52952239    -0.89900
H2506       H  0.28556700  0.56504438  0.49710120     0.17800
H2507       H  0.21580817  0.47594412  0.48935016     0.17800
N2508       N  0.19592475  0.52388108  0.45879924    -0.88900
H2509       H  0.30292158  0.53452999  0.54600185     0.35200
H2510       H  0.32270234  0.52186430  0.51519231     0.40300
H2511       H  0.20164922  0.52964700  0.43626864     0.39900
H2512       H  0.18151241  0.54074095  0.46771754     0.34800
C2513       C  0.18665848  0.54491122  0.31644966    -0.27000
C2514       C  0.15566916  0.54799834  0.30884446    -0.15000
C2515       C  0.13918768  0.57379498  0.31864611     0.35600
C2516       C  0.15345698  0.59549239  0.33723525    -0.26400
C2517       C  0.18352343  0.59093559  0.34716251    -0.15700
C2518       C  0.20056473  0.56582498  0.33609793     0.36700
N2519       N  0.23156525  0.56057557  0.34522780    -0.89900
H2520       H  0.19935221  0.52487117  0.30915423     0.17800
H2521       H  0.14028141  0.61468421  0.34582917     0.17800
N2522       N  0.10764674  0.57731808  0.31070574    -0.88900
H2523       H  0.23216294  0.55777589  0.36896965     0.35200
H2524       H  0.24438905  0.57991840  0.33948905     0.40300
H2525       H  0.10520726  0.59814897  0.29916283     0.39900
H2526       H  0.09489838  0.57850964  0.33095977     0.34800
C2527       C  0.38708952  0.10730949  0.66924524    -0.27000
C2528       C  0.40917595  0.09752917  0.69012171    -0.15000
C2529       C  0.43850803  0.11113617  0.68951076     0.35600
C2530       C  0.44404978  0.13655896  0.67066565    -0.26400
C2531       C  0.42070985  0.14868147  0.65261560    -0.15700
C2532       C  0.39259356  0.13287218  0.65054530     0.36700
N2533       N  0.36921267  0.14328065  0.63017222    -0.89900
H2534       H  0.36463011  0.09684659  0.66928959     0.17800
H2535       H  0.46594199  0.14811945  0.67165728     0.17800
N2536       N  0.46218881  0.09971811  0.70900251    -0.88900
H2537       H  0.34970765  0.14830409  0.64312650     0.35200
H2538       H  0.36382896  0.12528180  0.61544179     0.40300
H2539       H  0.46697850  0.07771465  0.70154615     0.39900
H2540       H  0.48237337  0.11218027  0.70576822     0.34800
C2541       C  0.43665549  0.24677440  0.73363080    -0.27000
C2542       C  0.44571212  0.27049037  0.71365246    -0.15000
C2543       C  0.46628154  0.29281079  0.72533723     0.35600
C2544       C  0.47663378  0.29086207  0.75623235    -0.26400
C2545       C  0.46701421  0.26715327  0.77596008    -0.15700
C2546       C  0.44701484  0.24487028  0.76401604     0.36700
N2547       N  0.43749614  0.21955972  0.78263788    -0.89900
H2548       H  0.42153898  0.22893775  0.72558043     0.17800
H2549       H  0.49188556  0.30819945  0.76506183     0.17800
N2550       N  0.47682517  0.31726569  0.70598664    -0.88900
H2551       H  0.41361703  0.21968943  0.78382969     0.35200
H2552       H  0.44432171  0.19939239  0.77177704     0.40300
H2553       H  0.49069796  0.30762543  0.68902725     0.39900
H2554       H  0.49078511  0.33220994  0.71826844     0.34800
C2555       C  0.54985079  0.20455231  0.62772963    -0.27000
C2556       C  0.52947833  0.22300038  0.64417801    -0.15000
C2557       C  0.53068322  0.22295091  0.67652621     0.35600
C2558       C  0.55055576  0.20276402  0.69171280    -0.26400
C2559       C  0.56880320  0.18243231  0.67499471    -0.15700
C2560       C  0.56942079  0.18438107  0.64276850     0.36700
N2561       N  0.58972804  0.16556826  0.62513319    -0.89900
H2562       H  0.54963896  0.20471529  0.60293030     0.17800
H2563       H  0.55039121  0.20177812  0.71649412     0.17800
N2564       N  0.51048527  0.24179396  0.69409368    -0.88900
H2565       H  0.60374000  0.17988099  0.61198414     0.35200
H2566       H  0.57660995  0.15236095  0.61022064     0.40300
H2567       H  0.52377602  0.25568569  0.70821176     0.39900
H2568       H  0.49732368  0.22751569  0.70813128     0.34800
C2569       C  0.37823947  0.35709659  0.59029032    -0.27000
C2570       C  0.37070346  0.32703082  0.59852491    -0.15000
C2571       C  0.33962953  0.31804247  0.59698561     0.35600
C2572       C  0.31739733  0.33818513  0.58520553    -0.26400
C2573       C  0.32493544  0.36802412  0.57599195    -0.15700
C2574       C  0.35568562  0.37798779  0.58017643     0.36700
N2575       N  0.36435370  0.40892743  0.57303617    -0.89900
H2576       H  0.40179905  0.36447664  0.59216665     0.17800
H2577       H  0.29415070  0.33007609  0.58260056     0.17800
N2578       N  0.33053334  0.28801268  0.60650115    -0.88900
H2579       H  0.38783305  0.41209925  0.57611324     0.35200
H2580       H  0.35338980  0.42319302  0.58880108     0.40300
H2581       H  0.31983772  0.27731062  0.58809382     0.39900
H2582       H  0.31434366  0.29034095  0.62401451     0.34800
C2583       C  0.51111857  0.29061854  0.51872039    -0.27000
C2584       C  0.48918373  0.26724020  0.52130941    -0.15000
C2585       C  0.48477902  0.24813159  0.49534110     0.35600
C2586       C  0.50103315  0.25355145  0.46775683    -0.26400
C2587       C  0.52139519  0.27812165  0.46467342    -0.15700
C2588       C  0.52696676  0.29631580  0.49094419     0.36700
N2589       N  0.54755941  0.32184889  0.48868749    -0.89900
H2590       H  0.51544599  0.30513863  0.53825921     0.17800
H2591       H  0.49568908  0.23999607  0.44782691     0.17800
N2592       N  0.46294899  0.22373653  0.49625598    -0.88900
H2593       H  0.56937207  0.31312755  0.48416230     0.35200
H2594       H  0.54886798  0.33340780  0.50955040     0.40300
H2595       H  0.47433135  0.20335709  0.49102143     0.39900
H2596       H  0.44667486  0.22773800  0.47924713     0.34800
C2597       C  0.32309156  0.19695357  0.51712723    -0.27000
C2598       C  0.32670434  0.16519011  0.51386957    -0.15000
C2599       C  0.34663563  0.14916707  0.53316676     0.35600
C2600       C  0.36416558  0.16542475  0.55422331    -0.26400
C2601       C  0.36238840  0.19748352  0.55621733    -0.15700
C2602       C  0.34117076  0.21346383  0.53796363     0.36700
N2603       N  0.33955495  0.24627373  0.53907088    -0.89900
H2604       H  0.30792594  0.20910917  0.50178722     0.17800
H2605       H  0.38042745  0.15306632  0.56821420     0.17800
N2606       N  0.35020508  0.11661765  0.52998883    -0.88900
H2607       H  0.32289041  0.25441650  0.52401711     0.35200
H2608       H  0.36049656  0.25486384  0.53125488     0.40300
H2609       H  0.32924825  0.10650720  0.53560697     0.39900
H2610       H  0.36616305  0.10826088  0.54567063     0.34800
C2611       C  0.65533861  0.40526769  0.10729525    -0.27000
C2612       C  0.65234314  0.43605939  0.11631084    -0.15000
C2613       C  0.65965642  0.45923760  0.09498554     0.35600
C2614       C  0.67408891  0.45132212  0.06740652    -0.26400
C2615       C  0.68152184  0.42082674  0.06087933    -0.15700
C2616       C  0.66970191  0.39745574  0.07959115     0.36700
N2617       N  0.67556987  0.36598875  0.07211245    -0.89900
H2618       H  0.64807855  0.38715095  0.12264034     0.17800
H2619       H  0.68299541  0.46924193  0.05282917     0.17800
N2620       N  0.65442586  0.49082179  0.10193603    -0.88900
H2621       H  0.66418719  0.36132095  0.05166823     0.35200
H2622       H  0.66612055  0.35150745  0.08870658     0.40300
H2623       H  0.64059000  0.50005401  0.08476652     0.39900
H2624       H  0.67543215  0.50219713  0.10131749     0.34800
C2625       C  0.73153187  0.48422145  0.26288307    -0.27000
C2626       C  0.71950322  0.46619760  0.23894105    -0.15000
C2627       C  0.73874103  0.46021649  0.21351489     0.35600
C2628       C  0.76805099  0.47275755  0.21196244    -0.26400
C2629       C  0.78027553  0.49110828  0.23535951    -0.15700
C2630       C  0.76175774  0.49647751  0.26148991     0.36700
N2631       N  0.77347996  0.51418170  0.28643393    -0.89900
H2632       H  0.71720932  0.48916190  0.28252900     0.17800
H2633       H  0.78146130  0.46748126  0.19175930     0.17800
N2634       N  0.72855227  0.44192834  0.18835484    -0.88900
H2635       H  0.75732773  0.51549996  0.30408535     0.35200
H2636       H  0.77678996  0.53650438  0.27845035     0.40300
H2637       H  0.74369034  0.42358873  0.18568227     0.39900
H2638       H  0.72940228  0.45528227  0.16848686     0.34800
C2639       C  0.70141255  0.57229280  0.16826805    -0.27000
C2640       C  0.68503336  0.59167458  0.14879185    -0.15000
C2641       C  0.65279715  0.59227436  0.15054953     0.35600
C2642       C  0.63740066  0.57177182  0.16969717    -0.26400
C2643       C  0.65348370  0.55051145  0.18740261    -0.15700
C2644       C  0.68594460  0.55133277  0.18735832     0.36700
N2645       N  0.70310119  0.52947643  0.20482020    -0.89900
H2646       H  0.72617343  0.57200658  0.16702273     0.17800
H2647       H  0.61261459  0.57181677  0.16988074     0.17800
N2648       N  0.63552105  0.61354329  0.13252910    -0.88900
H2649       H  0.72656819  0.53367493  0.20284596     0.35200
H2650       H  0.69929848  0.50815929  0.19479240     0.40300
H2651       H  0.62235616  0.62696438  0.14733751     0.39900
H2652       H  0.62064006  0.60113283  0.11861904     0.34800
C2653       C  0.61921924  0.38711687  0.32239181    -0.27000
C2654       C  0.60102373  0.39922058  0.29882797    -0.15000
C2655       C  0.57216489  0.38626291  0.29336681     0.35600
C2656       C  0.56239575  0.36091237  0.31080464    -0.26400
C2657       C  0.57991185  0.34929701  0.33521300    -0.15700
C2658       C  0.60879409  0.36280721  0.34110467     0.36700
N2659       N  0.62839012  0.35214642  0.36521176    -0.89900
H2660       H  0.64177634  0.39656404  0.32621927     0.17800
H2661       H  0.54020833  0.35097134  0.30618117     0.17800
N2662       N  0.55325874  0.39853075  0.26947288    -0.88900
H2663       H  0.64857419  0.34419288  0.35505968     0.35200
H2664       H  0.61887682  0.33344961  0.37665852     0.40300
H2665       H  0.54654137  0.42052137  0.27602745     0.39900
H2666       H  0.53328691  0.38571925  0.26725447     0.34800
C2667       C  0.50644641  0.51017857  0.21251576    -0.27000
C2668       C  0.52950760  0.51447221  0.23460497    -0.15000
C2669       C  0.52334150  0.53537698  0.25864066     0.35600
C2670       C  0.49459107  0.55001335  0.26056987    -0.26400
C2671       C  0.47110404  0.54457513  0.23913538    -0.15700
C2672       C  0.47778485  0.52494221  0.21428382     0.36700
N2673       N  0.45514569  0.51911701  0.19128120    -0.89900
H2674       H  0.51062831  0.49492491  0.19347186     0.17800
H2675       H  0.49014540  0.56474956  0.27997752     0.17800
N2676       N  0.54531819  0.54172442  0.28195070    -0.88900
H2677       H  0.46327458  0.50350059  0.17508604     0.35200
H2678       H  0.45133342  0.53963988  0.17957903     0.40300
H2679       H  0.56473251  0.55127396  0.27170917     0.39900
H2680       H  0.55129714  0.52116902  0.29265208     0.34800
C2681       C  0.56120496  0.38315061  0.13698561    -0.27000
C2682       C  0.56384362  0.38124057  0.16899180    -0.15000
C2683       C  0.55018285  0.35635778  0.18449638     0.35600
C2684       C  0.53140305  0.33606983  0.16806739    -0.26400
C2685       C  0.52668724  0.33977499  0.13642920    -0.15700
C2686       C  0.54312979  0.36259331  0.12064097     0.36700
N2687       N  0.54114534  0.36536540  0.08803224    -0.89900
H2688       H  0.57294443  0.40110038  0.12444226     0.17800
H2689       H  0.51915122  0.31831501  0.18035124     0.17800
N2690       N  0.55405056  0.35258205  0.21689287    -0.88900
H2691       H  0.56320594  0.36330216  0.07893542     0.35200
H2692       H  0.53304890  0.38727644  0.08283774     0.40300
H2693       H  0.57688586  0.34665150  0.22069313     0.39900
H2694       H  0.54097404  0.33422604  0.22496949     0.34800
C2695       C  0.64576655  0.64517299  0.83829460    -0.27000
C2696       C  0.61560575  0.65640146  0.83890378    -0.15000
C2697       C  0.59268285  0.64055574  0.82260174     0.35600
C2698       C  0.60059519  0.61466565  0.80544050    -0.26400
C2699       C  0.63098141  0.60451118  0.80398944    -0.15700
C2700       C  0.65357002  0.61948158  0.82098322     0.36700
N2701       N  0.68453979  0.60873338  0.82042604    -0.89900
H2702       H  0.66362138  0.65674409  0.85089502     0.17800
H2703       H  0.58328640  0.60342924  0.79183729     0.17800
N2704       N  0.56177356  0.65124378  0.82143825    -0.88900
H2705       H  0.69095985  0.60361478  0.84288255     0.35200
H2706       H  0.69848787  0.62649780  0.81249783     0.40300
H2707       H  0.56194563  0.67378203  0.81338494     0.39900
H2708       H  0.55258160  0.65085551  0.84353120     0.34800
C2709       C  0.74632957  0.59043918  0.75743412    -0.27000
C2710       C  0.74107355  0.55910916  0.76252461    -0.15000
C2711       C  0.76628400  0.54064729  0.77105432     0.35600
C2712       C  0.79608831  0.55353291  0.77131709    -0.26400
C2713       C  0.80172131  0.58422954  0.76238081    -0.15700
C2714       C  0.77576528  0.60306330  0.75700708     0.36700
N2715       N  0.77818885  0.63505538  0.75021933    -0.89900
H2716       H  0.72722949  0.60516511  0.75160067     0.17800
H2717       H  0.81515888  0.53880832  0.77699754     0.17800
N2718       N  0.76294753  0.50865292  0.77786245    -0.88900
H2719       H  0.78872853  0.63796376  0.72892680     0.35200
H2720       H  0.79106481  0.64560761  0.76729297     0.40300
H2721       H  0.74010157  0.50191416  0.77665067     0.39900
H2722       H  0.76965854  0.50535574  0.80056304     0.34800
C2723       C  0.59087606  0.84368114  0.58242341    -0.27000
C2724       C  0.58185218  0.83970733  0.61310333    -0.15000
C2725       C  0.59658474  0.85640502  0.63615997     0.35600
C2726       C  0.62152195  0.87507431  0.62833377    -0.26400
C2727       C  0.63200555  0.87742975  0.59790528    -0.15700
C2728       C  0.61563241  0.86263596  0.57459009     0.36700
N2729       N  0.62524038  0.86512745  0.54330700    -0.89900
H2730       H  0.57997755  0.83038631  0.56469351     0.17800
H2731       H  0.63372757  0.88677799  0.64636211     0.17800
N2732       N  0.58802215  0.85212089  0.66767402    -0.88900
H2733       H  0.60702479  0.87402478  0.53067638     0.35200
H2734       H  0.63000067  0.84316588  0.53514183     0.40300
H2735       H  0.56587546  0.86071302  0.67040917     0.39900
H2736       H  0.60208561  0.86503243  0.68197867     0.34800
C2737       C  0.55557778  0.65272061  0.68291445    -0.27000
C2738       C  0.55476972  0.65697200  0.65119355    -0.15000
C2739       C  0.56611495  0.63390495  0.63158041     0.35600
C2740       C  0.58091975  0.60867467  0.64418399    -0.26400
C2741       C  0.58506237  0.60652888  0.67585917    -0.15700
C2742       C  0.57085254  0.62776377  0.69546656     0.36700
N2743       N  0.57273435  0.62456338  0.72805065    -0.89900
H2744       H  0.54577711  0.66974481  0.69802515     0.17800
H2745       H  0.59140885  0.59207999  0.62901864     0.17800
N2746       N  0.56525144  0.63661671  0.59896271    -0.88900
H2747       H  0.55049179  0.62351445  0.73685927     0.35200
H2748       H  0.58320029  0.64415037  0.73682274     0.40300
H2749       H  0.57679085  0.65657458  0.59260159     0.39900
H2750       H  0.54244426  0.63816807  0.59208813     0.34800
C2751       C  0.54357239  0.79749275  0.74772677    -0.27000
C2752       C  0.55075030  0.77284472  0.72813565    -0.15000
C2753       C  0.57014464  0.74976614  0.73964382     0.35600
C2754       C  0.58245954  0.75180969  0.76927223    -0.26400
C2755       C  0.57631046  0.77666955  0.78891868    -0.15700
C2756       C  0.55612309  0.79968280  0.77786084     0.36700
N2757       N  0.54849433  0.82525415  0.79697688    -0.89900
H2758       H  0.52900984  0.81561662  0.73916468     0.17800
H2759       H  0.59702733  0.73326252  0.77690235     0.17800
N2760       N  0.57727874  0.72363315  0.72124994    -0.88900
H2761       H  0.53309007  0.83975165  0.78583813     0.35200
H2762       H  0.56848806  0.83790504  0.80023574     0.40300
H2763       H  0.57041692  0.70411516  0.73332420     0.39900
H2764       H  0.60101123  0.72260419  0.71848226     0.34800
C2765       C  0.82312684  0.61274319  0.58219719    -0.27000
C2766       C  0.81632423  0.64377177  0.57699953    -0.15000
C2767       C  0.82906625  0.66619795  0.59630979     0.35600
C2768       C  0.84576304  0.65683518  0.62183965    -0.26400
C2769       C  0.85101524  0.62585045  0.62803604    -0.15700
C2770       C  0.84032131  0.60340823  0.60755471     0.36700
N2771       N  0.84514822  0.57119365  0.61240041    -0.89900
H2772       H  0.81288565  0.59538165  0.56790635     0.17800
H2773       H  0.85363210  0.67396516  0.63776503     0.17800
N2774       N  0.82369089  0.69841933  0.59216509    -0.88900
H2775       H  0.82377448  0.56110810  0.61611296     0.35200
H2776       H  0.85808021  0.56698706  0.63197699     0.40300
H2777       H  0.81143390  0.70289502  0.57223975     0.39900
H2778       H  0.84497879  0.70888483  0.58911691     0.34800
C2779       C  0.63647591  0.71938112  0.53604111    -0.27000
C2780       C  0.63555501  0.68724591  0.53564737    -0.15000
C2781       C  0.60717846  0.67253284  0.53165085     0.35600
C2782       C  0.58022318  0.68956208  0.53532356    -0.26400
C2783       C  0.58185723  0.72059586  0.54312754    -0.15700
C2784       C  0.60966518  0.73621347  0.53919478     0.36700
N2785       N  0.61149752  0.76884028  0.54162883    -0.89900
H2786       H  0.65813988  0.73140904  0.53615267     0.17800
H2787       H  0.55857464  0.67758772  0.53694651     0.17800
N2788       N  0.60556286  0.64032927  0.52594683    -0.88900
H2789       H  0.60383561  0.77544847  0.56325463     0.35200
H2790       H  0.59684231  0.77837436  0.52533647     0.40300
H2791       H  0.59370078  0.63714677  0.50548570     0.39900
H2792       H  0.59292716  0.63006813  0.54350083     0.34800
C2793       C  0.73470033  0.76508865  0.57161696    -0.27000
C2794       C  0.74905388  0.75595338  0.54425136    -0.15000
C2795       C  0.76541183  0.77831656  0.52738964     0.35600
C2796       C  0.76689984  0.80898884  0.53835476    -0.26400
C2797       C  0.75202536  0.81799605  0.56568682    -0.15700
C2798       C  0.73598924  0.79529325  0.58234680     0.36700
N2799       N  0.72105008  0.80259233  0.61064737    -0.89900
H2800       H  0.72209520  0.74847896  0.58512270     0.17800
H2801       H  0.77904998  0.82607231  0.52507206     0.17800
N2802       N  0.78062329  0.76990016  0.49947246    -0.88900
H2803       H  0.73024170  0.78866853  0.62779159     0.35200
H2804       H  0.69784116  0.79730546  0.60853010     0.40300
H2805       H  0.79792712  0.75435754  0.50505651     0.39900
H2806       H  0.79137701  0.78892472  0.48969211     0.34800
C2807       C  0.68938495  0.54906015  0.58128057    -0.27000
C2808       C  0.71070801  0.57251419  0.58556005    -0.15000
C2809       C  0.72821033  0.57364961  0.61239564     0.35600
C2810       C  0.72020562  0.55475954  0.63675843    -0.26400
C2811       C  0.69382800  0.53691932  0.63485424    -0.15700
C2812       C  0.68052466  0.53096861  0.60626107     0.36700
N2813       N  0.65524075  0.51016455  0.60390814    -0.89900
H2814       H  0.67694422  0.54758903  0.55994559     0.17800
H2815       H  0.73105609  0.55804186  0.65877511     0.17800
N2816       N  0.75226009  0.59566395  0.61554910    -0.88900
H2817       H  0.64733749  0.50935151  0.58137985     0.35200
H2818       H  0.66348438  0.48830533  0.60903904     0.40300
H2819       H  0.76923882  0.58925247  0.60005915     0.39900
H2820       H  0.76210109  0.59428819  0.63728688     0.34800
C2821       C  0.34602732  0.66452629  0.93219701    -0.27000
C2822       C  0.32781944  0.64098304  0.94405850    -0.15000
C2823       C  0.33014469  0.61115774  0.93151741     0.35600
C2824       C  0.34741393  0.60662154  0.90501893    -0.26400
C2825       C  0.36257007  0.63105662  0.89110972    -0.15700
C2826       C  0.36304755  0.65996290  0.90529443     0.36700
N2827       N  0.37898862  0.68503120  0.89119636    -0.89900
H2828       H  0.34389334  0.68738668  0.94153111     0.17800
H2829       H  0.34768210  0.58424650  0.89434983     0.17800
N2830       N  0.31311089  0.58568825  0.94353611    -0.88900
H2831       H  0.37718468  0.70472863  0.90460637     0.35200
H2832       H  0.36822309  0.68989835  0.87043669     0.40300
H2833       H  0.30100371  0.59193143  0.96313675     0.39900
H2834       H  0.32886578  0.56903953  0.95038128     0.34800
C2835       C  0.29215837  0.56008411  0.75443084    -0.27000
C2836       C  0.30042754  0.58951807  0.76498874    -0.15000
C2837       C  0.27657672  0.60904679  0.77502913     0.35600
C2838       C  0.24606113  0.59917662  0.77440985    -0.26400
C2839       C  0.23767883  0.56988224  0.76411142    -0.15700
C2840       C  0.26123861  0.55010333  0.75416804     0.36700
N2841       N  0.25400785  0.52005446  0.74351575    -0.89900
H2842       H  0.30974781  0.54453267  0.74651650     0.17800
H2843       H  0.22867293  0.61489539  0.78253231     0.17800
N2844       N  0.28296706  0.63912229  0.78626655    -0.88900
H2845       H  0.26582759  0.50427700  0.75706327     0.35200
H2846       H  0.26210487  0.51804769  0.72107162     0.40300
H2847       H  0.27471170  0.64060328  0.80870320     0.39900
H2848       H  0.27098918  0.65491041  0.77287136     0.34800
C2849       C  0.38979384  0.51060206  0.86339336    -0.27000
C2850       C  0.38127309  0.51557657  0.83280250    -0.15000
C2851       C  0.35788969  0.49717434  0.82017887     0.35600
C2852       C  0.34208074  0.47630620  0.83906423    -0.26400
C2853       C  0.34873596  0.47412332  0.87042623    -0.15700
C2854       C  0.37363226  0.49054728  0.88223441     0.36700
N2855       N  0.38252673  0.48706332  0.91358473    -0.89900
H2856       H  0.40829041  0.52363303  0.87340850     0.17800
H2857       H  0.32360418  0.46293495  0.82956507     0.17800
N2858       N  0.34868758  0.50021981  0.78896404    -0.88900
H2859       H  0.38132637  0.50851313  0.92406205     0.35200
H2860       H  0.40529462  0.47976088  0.91405480     0.40300
H2861       H  0.36763638  0.49575647  0.77500469     0.39900
H2862       H  0.34167105  0.52276869  0.78538237     0.34800
C2863       C  0.43688488  0.72172206  0.69863423    -0.27000
C2864       C  0.43925819  0.71325018  0.66793044    -0.15000
C2865       C  0.42567208  0.68506398  0.65890445     0.35600
C2866       C  0.41310346  0.66502695  0.68094809    -0.26400
C2867       C  0.41284171  0.67242837  0.71216501    -0.15700
C2868       C  0.42385103  0.70210396  0.72060067     0.36700
N2869       N  0.42373100  0.71274103  0.75155346    -0.89900
H2870       H  0.44712600  0.74298475  0.70613225     0.17800
H2871       H  0.40382719  0.64330418  0.67357281     0.17800
N2872       N  0.42395601  0.67622644  0.62740664    -0.88900
H2873       H  0.43560015  0.69710580  0.76511617     0.35200
H2874       H  0.40115607  0.71469571  0.75919858     0.40300
H2875       H  0.44587946  0.67223852  0.61881614     0.39900
H2876       H  0.41387872  0.69408998  0.61506950     0.34800
C2877       C  0.49631891  0.53719850  0.74388690    -0.27000
C2878       C  0.49346575  0.55488754  0.77044231    -0.15000
C2879       C  0.51842992  0.55543582  0.79109462     0.35600
C2880       C  0.54583942  0.53964493  0.78420035    -0.26400
C2881       C  0.54907855  0.52298675  0.75697743    -0.15700
C2882       C  0.52353774  0.52118366  0.73720550     0.36700
N2883       N  0.52548873  0.50353119  0.70970424    -0.89900
H2884       H  0.47726189  0.53563217  0.72821182     0.17800
H2885       H  0.56530567  0.54220558  0.79922517     0.17800
N2886       N  0.51656162  0.57312065  0.81857931    -0.88900
H2887       H  0.52128188  0.51809248  0.69118110     0.35200
H2888       H  0.50817218  0.48705738  0.71034537     0.40300
H2889       H  0.53405261  0.58938543  0.81812340     0.39900
H2890       H  0.52043818  0.55847869  0.83711348     0.34800
C2891       C  0.45350032  0.69708172  0.86013908    -0.27000
C2892       C  0.45925185  0.68587916  0.83066898    -0.15000
C2893       C  0.48579910  0.69456591  0.81479200     0.35600
C2894       C  0.50665409  0.71403090  0.82898474    -0.26400
C2895       C  0.50188874  0.72332820  0.85931027    -0.15700
C2896       C  0.47497926  0.71537202  0.87496859     0.36700
N2897       N  0.47037646  0.72469402  0.90617580    -0.89900
H2898       H  0.43345608  0.68951639  0.87247153     0.17800
H2899       H  0.52766854  0.72003226  0.81716169     0.17800
N2900       N  0.49203141  0.68282133  0.78483798    -0.88900
H2901       H  0.44944487  0.71653990  0.91448459     0.35200
H2902       H  0.46901816  0.74856848  0.90641970     0.40300
H2903       H  0.51260319  0.67067509  0.78557439     0.39900
H2904       H  0.49499947  0.70137023  0.76997577     0.34800
C2905       C  0.57757010  0.91261634  0.31699348    -0.27000
C2906       C  0.59851488  0.90415839  0.33959146    -0.15000
C2907       C  0.62699328  0.91942336  0.34100347     0.35600
C2908       C  0.63420252  0.94226596  0.31957676    -0.26400
C2909       C  0.61413821  0.94931074  0.29573914    -0.15700
C2910       C  0.58540910  0.93424649  0.29460297     0.36700
N2911       N  0.56405046  0.93970459  0.27052627    -0.89900
H2912       H  0.55587509  0.90076636  0.31535374     0.17800
H2913       H  0.65632026  0.95337768  0.32067526     0.17800
N2914       N  0.64904012  0.91134499  0.36378260    -0.88900
H2915       H  0.57370294  0.93198149  0.25006935     0.35200
H2916       H  0.56013456  0.96321480  0.26889652     0.40300
H2917       H  0.65485513  0.93120924  0.37564286     0.39900
H2918       H  0.66873880  0.90360110  0.35257332     0.34800
C2919       C  0.54469392  0.76458912  0.28219099    -0.27000
C2920       C  0.56999011  0.78242010  0.29167039    -0.15000
C2921       C  0.58476464  0.80042028  0.26907775     0.35600
C2922       C  0.57349731  0.80171866  0.23910583    -0.26400
C2923       C  0.54745407  0.78539263  0.22970182    -0.15700
C2924       C  0.53327989  0.76591259  0.25153357     0.36700
N2925       N  0.50658709  0.74882848  0.24316696    -0.89900
H2926       H  0.53287155  0.75070661  0.29903740     0.17800
H2927       H  0.58561124  0.81610492  0.22287297     0.17800
N2928       N  0.61144363  0.81793984  0.27632214    -0.88900
H2929       H  0.49814639  0.73670116  0.26203680     0.35200
H2930       H  0.51332839  0.73249846  0.22706882     0.40300
H2931       H  0.60678515  0.84097275  0.27174255     0.39900
H2932       H  0.62924431  0.81093912  0.26190716     0.34800
C2933       C  0.45978278  0.85075145  0.37289939    -0.27000
C2934       C  0.48278369  0.83500709  0.35714281    -0.15000
C2935       C  0.48341609  0.83577058  0.32484748     0.35600
C2936       C  0.46274918  0.85447742  0.30898423    -0.26400
C2937       C  0.44178441  0.87250843  0.32509419    -0.15700
C2938       C  0.43900383  0.86927620  0.35715937     0.36700
N2939       N  0.41573500  0.88576256  0.37366017    -0.89900
H2940       H  0.45898245  0.84975420  0.39767032     0.17800
H2941       H  0.46459784  0.85657620  0.28432614     0.17800
N2942       N  0.50639267  0.81945362  0.30818724    -0.88900
H2943       H  0.41708333  0.88119970  0.39711127     0.35200
H2944       H  0.39454326  0.87749932  0.36644122     0.40300
H2945       H  0.51926026  0.83526192  0.29558481     0.39900
H2946       H  0.49526704  0.80510300  0.29273097     0.34800
C2947       C  0.66918788  0.74037318  0.41608612    -0.27000
C2948       C  0.63836968  0.73127974  0.41301925    -0.15000
C2949       C  0.63011999  0.70160309  0.42201105     0.35600
C2950       C  0.65226458  0.68188532  0.43431008    -0.26400
C2951       C  0.68281669  0.69132966  0.43923447    -0.15700
C2952       C  0.69139246  0.72089969  0.42941389     0.36700
N2953       N  0.72193025  0.73174172  0.43455619    -0.89900
H2954       H  0.67571510  0.76327799  0.40914327     0.17800
H2955       H  0.64492920  0.65930866  0.44154047     0.17800
N2956       N  0.59922082  0.69132015  0.41876544    -0.88900
H2957       H  0.72415239  0.75440591  0.42717573     0.35200
H2958       H  0.73663021  0.71870928  0.42088569     0.40300
H2959       H  0.59111688  0.68489059  0.44038781     0.39900
H2960       H  0.59935229  0.67189538  0.40486793     0.34800
C2961       C  0.50345363  0.77537071  0.48931062    -0.27000
C2962       C  0.52512596  0.79878795  0.48433762    -0.15000
C2963       C  0.53141973  0.81848307  0.50958226     0.35600
C2964       C  0.51719009  0.81375707  0.53817424    -0.26400
C2965       C  0.49660815  0.78961808  0.54344343    -0.15700
C2966       C  0.48931864  0.77068134  0.51824288     0.36700
N2967       N  0.46777095  0.74629997  0.52189042    -0.89900
H2968       H  0.49747623  0.76029301  0.47065260     0.17800
H2969       H  0.52342579  0.82861827  0.55692748     0.17800
N2970       N  0.55267853  0.84330785  0.50750920    -0.88900
H2971       H  0.47872963  0.72580904  0.51621860     0.35200
H2972       H  0.45002257  0.74980548  0.50631296     0.40300
H2973       H  0.54495535  0.85905469  0.49125877     0.39900
H2974       H  0.57410951  0.83472988  0.50119050     0.34800
C2975       C  0.67512362  0.84543011  0.45993095    -0.27000
C2976       C  0.65160009  0.86252103  0.44630880    -0.15000
C2977       C  0.65026504  0.89440894  0.45160424     0.35600
C2978       C  0.67175928  0.90826120  0.47053454    -0.26400
C2979       C  0.69441783  0.89113569  0.48540097    -0.15700
C2980       C  0.69617822  0.85935101  0.47980282     0.36700
N2981       N  0.71819263  0.84081463  0.49533609    -0.89900
H2982       H  0.67642914  0.82095995  0.45621018     0.17800
H2983       H  0.66983698  0.93266242  0.47446766     0.17800
N2984       N  0.62682940  0.91302931  0.43823266    -0.88900
H2985       H  0.73140327  0.82952742  0.47887579     0.35200
H2986       H  0.70638913  0.82427479  0.50804920     0.40300
H2987       H  0.61414875  0.92291178  0.45597610     0.39900
H2988       H  0.63730878  0.93075624  0.42604271     0.34800
C2989       C  0.91339777  0.37037114  0.59934329    -0.27000
C2990       C  0.88344942  0.35851430  0.60069940    -0.15000
C2991       C  0.87949860  0.32786327  0.61099480     0.35600
C2992       C  0.90468452  0.31083134  0.62049211    -0.26400
C2993       C  0.93432456  0.32295476  0.62011259    -0.15700
C2994       C  0.93876763  0.35288375  0.60880550     0.36700
N2995       N  0.96873723  0.36600689  0.60770844    -0.89900
H2996       H  0.91720212  0.39358175  0.59146395     0.17800
H2997       H  0.90085403  0.28757737  0.62829546     0.17800
N2998       N  0.85028657  0.31316219  0.61275129    -0.88900
H2999       H  0.96861854  0.38571862  0.62119737     0.35200
H3000       H  0.97321184  0.37264672  0.58513391     0.40300
H3001       H  0.84031410  0.31313464  0.59106154     0.39900
H3002       H  0.83644718  0.32487342  0.62836262     0.34800
C3003       C  0.74966849  0.31429828  0.53156855    -0.27000
C3004       C  0.75637428  0.32195784  0.56229404    -0.15000
C3005       C  0.76212594  0.29759307  0.58283002     0.35600
C3006       C  0.76415935  0.26735900  0.57200879    -0.26400
C3007       C  0.76012263  0.26007391  0.54095045    -0.15700
C3008       C  0.75164053  0.28371220  0.52069061     0.36700
N3009       N  0.74689627  0.27697215  0.48893287    -0.89900
H3010       H  0.74398751  0.33237547  0.51561671     0.17800
H3011       H  0.76990762  0.24934265  0.58809211     0.17800
N3012       N  0.76659751  0.30328075  0.61474733    -0.88900
H3013       H  0.74160139  0.29694982  0.47685235     0.35200
H3014       H  0.72771805  0.26281212  0.48749008     0.40300
H3015       H  0.78802273  0.29468799  0.62087769     0.39900
H3016       H  0.75003215  0.29100844  0.62695622     0.34800
C3017       C  0.85140236  0.41642399  0.47057580    -0.27000
C3018       C  0.82503758  0.40165270  0.48134984    -0.15000
C3019       C  0.81656830  0.37327987  0.46868288     0.35600
C3020       C  0.83607333  0.35923703  0.44707549    -0.26400
C3021       C  0.86451539  0.37228741  0.43984871    -0.15700
C3022       C  0.87144702  0.40175134  0.45049407     0.36700
N3023       N  0.89950223  0.41637009  0.44191039    -0.89900
H3024       H  0.85804937  0.43826151  0.48020084     0.17800
H3025       H  0.83025703  0.33709832  0.43785006     0.17800
N3026       N  0.78984323  0.35769773  0.47973353    -0.88900
H3027       H  0.91206698  0.42030343  0.46179389     0.35200
H3028       H  0.89409328  0.43767191  0.43245968     0.40300
H3029       H  0.79401584  0.35182383  0.50252568     0.39900
H3030       H  0.78682756  0.33711449  0.46800976     0.34800
C3031       C  0.68619978  0.43262800  0.64396055    -0.27000
C3032       C  0.71785535  0.43732998  0.64694213    -0.15000
C3033       C  0.72837085  0.45172704  0.67416957     0.35600
C3034       C  0.70788864  0.45993769  0.69734952    -0.26400
C3035       C  0.67633538  0.45529148  0.69466676    -0.15700
C3036       C  0.66535753  0.44152081  0.66737901     0.36700
N3037       N  0.63309368  0.43717314  0.66318209    -0.89900
H3038       H  0.67769443  0.42175102  0.62345977     0.17800
H3039       H  0.71693633  0.47149815  0.71725906     0.17800
N3040       N  0.75977826  0.45965297  0.67878733    -0.88900
H3041       H  0.62569566  0.42143762  0.67966068     0.35200
H3042       H  0.62872966  0.42739832  0.64183661     0.40300
H3043       H  0.76772026  0.47201334  0.65982693     0.39900
H3044       H  0.77257667  0.43971949  0.68171984     0.34800
C3045       C  0.80131175  0.53340863  0.52240974    -0.27000
C3046       C  0.77750282  0.51249628  0.52883385    -0.15000
C3047       C  0.74791654  0.51986470  0.51796846     0.35600
C3048       C  0.74282769  0.54764895  0.50206904    -0.26400
C3049       C  0.76602155  0.56967986  0.49758276    -0.15700
C3050       C  0.79597935  0.56180795  0.50732430     0.36700
N3051       N  0.82117582  0.58209586  0.50128052    -0.89900
H3052       H  0.82428332  0.52785592  0.52975572     0.17800
H3053       H  0.71987424  0.55272279  0.49435511     0.17800
N3054       N  0.72286351  0.49917527  0.52307886    -0.88900
H3055       H  0.84179617  0.57197686  0.50787834     0.35200
H3056       H  0.81861630  0.60137272  0.51507987     0.40300
H3057       H  0.72712889  0.47948664  0.51022538     0.39900
H3058       H  0.70241855  0.50843608  0.51486940     0.34800
C3059       C  0.84203273  0.47232349  0.68322146    -0.27000
C3060       C  0.85332550  0.46622796  0.65375364    -0.15000
C3061       C  0.88157526  0.47870366  0.64453035     0.35600
C3062       C  0.89655165  0.49924510  0.66375806    -0.26400
C3063       C  0.88336653  0.50860631  0.69153096    -0.15700
C3064       C  0.85645956  0.49397823  0.70195926     0.36700
N3065       N  0.84188135  0.50264710  0.72995264    -0.89900
H3066       H  0.82076400  0.46219464  0.69073433     0.17800
H3067       H  0.91743698  0.51007083  0.65581621     0.17800
N3068       N  0.89422449  0.47150848  0.61497698    -0.88900
H3069       H  0.83667800  0.52592536  0.72850925     0.35200
H3070       H  0.85738921  0.49933825  0.74778846     0.40300
H3071       H  0.89979634  0.44825343  0.61507358     0.39900
H3072       H  0.91465707  0.48337866  0.61126414     0.34800
loop_ 
_geom_bond_atom_site_label_1 
_geom_bond_atom_site_label_2 
_geom_bond_distance 
_geom_bond_site_symmetry_2 
_ccdc_geom_bond_type 
O1          Cr19   2.041       .  S
O1            C9   1.276       .  A
O2          Cr19   1.998       .  S
O2            C3   1.258       .  A
C3            O4   1.265       .  A
C3         C3004   1.515       .  S
O4          Cr20   2.014       .  S
O5          Cr20   1.962       .  S
O5            C6   1.251       .  A
C6            O7   1.267       .  A
C6         C2990   1.495       .  S
O7          Cr21   2.034       .  S
O8          Cr21   1.934       .  S
O8            C9   1.257       .  A
C9         C3018   1.469       .  S
O10         Cr19   2.004       .  S
O10          C18   1.265       .  A
O11         Cr19   2.068       .  S
O11          C12   1.282       .  A
C12          O13   1.254       .  A
C12        C3032   1.507       .  S
O13         Cr20   1.940       .  S
O14         Cr20   2.033       .  S
O14          C15   1.271       .  A
C15          O16   1.262       .  A
C15        C3060   1.473       .  S
O16         Cr21   1.960       .  S
O17         Cr21   2.029       .  S
O17          C18   1.266       .  A
C18        C3046   1.518       .  S
Cr19         O22   1.781       .  S
Cr20         O22   1.775       .  S
Cr21         O22   1.777       .  S
O23         Cr41   1.973       .  S
O23          C31   1.255       .  A
O24         Cr41   2.051       .  S
O24          C25   1.278       .  A
C25          O26   1.264       .  A
C25        C2920   1.520       .  S
O26         Cr42   1.979       .  S
O27         Cr42   1.988       .  S
O27          C28   1.257       .  A
C28          O29   1.262       .  A
C28        C2906   1.480       .  S
O29         Cr43   2.002       .  S
O30         Cr43   1.992       .  S
O30          C31   1.262       .  A
C31        C2934   1.470       .  S
O32         Cr41   2.060       .  S
O32          C40   1.278       .  A
O33         Cr41   2.009       .  S
O33          C34   1.267       .  A
C34          O35   1.259       .  A
C34        C2948   1.491       .  S
O35         Cr42   1.989       .  S
O36         Cr42   1.988       .  S
O36          C37   1.267       .  A
C37          O38   1.268       .  A
C37        C2976   1.483       .  S
O38         Cr43   1.997       .  S
O39         Cr43   1.978       .  S
O39          C40   1.260       .  A
C40        C2962   1.523       .  S
Cr41         O44   1.780       .  S
Cr42         O44   1.773       .  S
Cr43         O44   1.769       .  S
O45         Cr63   2.051       .  S
O45          C53   1.284       .  A
O46         Cr63   2.008       .  S
O46          C47   1.260       .  A
C47          O48   1.259       .  A
C47        C2836   1.513       .  S
O48         Cr64   1.988       .  S
O49         Cr64   1.979       .  S
O49          C50   1.253       .  A
C50          O51   1.252       .  A
C50        C2825   1.460       .  S
O51         Cr65   2.000       .  S
O52         Cr65   1.935       .  S
O52          C53   1.265       .  A
C53        C2850   1.485       .  S
O54         Cr63   2.020       .  S
O54          C62   1.263       .  A
O55         Cr63   2.061       .  S
O55          C56   1.283       .  A
C56          O57   1.255       .  A
C56        C2867   1.512       .  S
O57         Cr64   1.953       .  S
O58         Cr64   2.016       .  S
O58          C59   1.272       .  A
C59          O60   1.263       .  A
C59        C2892   1.454       .  S
O60         Cr65   1.959       .  S
O61         Cr65   1.980       .  S
O61          C62   1.249       .  A
C62        C2878   1.501       .  S
Cr63         O66   1.781       .  S
Cr64         O66   1.778       .  S
Cr65         O66   1.775       .  S
O67         Cr85   2.064       .  S
O67          C75   1.283       .  A
O68         Cr85   2.032       .  S
O68          C69   1.270       .  A
C69          O70   1.260       .  A
C69        C2794   1.507       .  S
O70         Cr86   1.989       .  S
O71         Cr86   1.960       .  S
O71          C72   1.261       .  A
C72          O73   1.267       .  A
C72        C2780   1.473       .  S
O73         Cr87   1.999       .  S
O74         Cr87   1.924       .  S
O74          C75   1.251       .  A
C75        C2951   1.500       .  S
O76         Cr85   2.028       .  S
O76          C84   1.262       .  A
O77         Cr85   2.031       .  S
O77          C78   1.274       .  A
C78          O79   1.257       .  A
C78        C2766   1.466       .  S
O79         Cr86   1.947       .  S
O80         Cr86   1.994       .  S
O80          C81   1.262       .  A
C81          O82   1.245       .  A
C81        C2808   1.451       .  S
O82         Cr87   1.951       .  S
O83         Cr87   1.978       .  S
O83          C84   1.258       .  A
C84        C3049   1.522       .  S
Cr85         O88   1.774       .  S
Cr86         O88   1.757       .  S
Cr87         O88   1.785       .  S
O89        Cr107   2.064       .  S
O89          C97   1.283       .  A
O90        Cr107   2.036       .  S
O90          C91   1.273       .  A
C91          O92   1.265       .  A
C91        C2752   1.514       .  S
O92        Cr108   2.009       .  S
O93        Cr108   1.955       .  S
O93          C94   1.261       .  A
C94          O95   1.265       .  A
C94        C2738   1.459       .  S
O95        Cr109   1.998       .  S
O96        Cr109   1.940       .  S
O96          C97   1.252       .  A
C97        C2864   1.497       .  S
O98        Cr107   2.022       .  S
O98         C106   1.263       .  A
O99        Cr107   2.034       .  S
O99         C100   1.273       .  A
C100        O101   1.255       .  A
C100       C2724   1.471       .  S
O101       Cr108   1.952       .  S
O102       Cr108   1.989       .  S
O102        C103   1.263       .  A
C103        O104   1.251       .  A
C103       C2783   1.454       .  S
O104       Cr109   1.973       .  S
O105       Cr109   1.978       .  S
O105        C106   1.257       .  A
C106       C2965   1.515       .  S
Cr107       O110   1.777       .  S
Cr108       O110   1.751       .  S
Cr109       O110   1.790       .  S
O111       Cr129   2.014       .  S
O111        C119   1.265       .  A
O112       Cr129   2.079       .  S
O112        C113   1.281       .  A
C113        O114   1.254       .  A
C113       C2710   1.500       .  S
O114       Cr130   1.953       .  S
O115       Cr130   1.984       .  S
O115        C116   1.267       .  A
C116        O117   1.251       .  A
C116       C2811   1.448       .  S
O117       Cr131   1.959       .  S
O118       Cr131   1.976       .  S
O118        C119   1.256       .  A
C119       C3035   1.505       .  S
O120       Cr129   2.064       .  S
O120        C128   1.286       .  A
O121       Cr129   1.980       .  S
O121        C122   1.258       .  A
C122        O123   1.262       .  A
C122       C2699   1.465       .  S
O123       Cr130   1.998       .  S
O124       Cr130   1.956       .  S
O124        C125   1.257       .  A
C125        O126   1.264       .  A
C125       C2741   1.458       .  S
O126       Cr131   1.998       .  S
O127       Cr131   1.934       .  S
O127        C128   1.253       .  A
C128       C2881   1.495       .  S
Cr129       O132   1.769       .  S
Cr130       O132   1.745       .  S
Cr131       O132   1.784       .  S
O133       Cr151   2.042       .  S
O133        C141   1.274       .  A
O134       Cr151   1.975       .  S
O134        C135   1.258       .  A
C135        O136   1.267       .  A
C135       C2643   1.482       .  S
O136       Cr152   2.007       .  S
O137       Cr152   1.975       .  S
O137        C138   1.258       .  A
C138        O139   1.264       .  A
C138       C2612   1.485       .  S
O139       Cr153   2.006       .  S
O140       Cr153   1.967       .  S
O140        C141   1.261       .  A
C141       C2626   1.510       .  S
O142       Cr151   2.004       .  S
O142        C150   1.267       .  A
O143       Cr151   2.054       .  S
O143        C144   1.274       .  A
C144        O145   1.258       .  A
C144       C2668   1.513       .  S
O145       Cr152   1.967       .  S
O146       Cr152   2.003       .  S
O146        C147   1.269       .  A
C147        O148   1.265       .  A
C147       C2682   1.483       .  S
O148       Cr153   1.984       .  S
O149       Cr153   2.010       .  S
O149        C150   1.264       .  A
C150       C2654   1.486       .  S
Cr151       O154   1.779       .  S
Cr152       O154   1.767       .  S
Cr153       O154   1.771       .  S
O155       Cr173   2.046       .  S
O155        C163   1.277       .  A
O156       Cr173   1.978       .  S
O156        C157   1.256       .  A
C157        O158   1.262       .  A
C157       C2556   1.475       .  S
O158       Cr174   1.991       .  S
O159       Cr174   1.986       .  S
O159        C160   1.260       .  A
C160        O161   1.259       .  A
C160       C2531   1.475       .  S
O161       Cr175   1.994       .  S
O162       Cr175   1.990       .  S
O162        C163   1.266       .  A
C163       C2542   1.521       .  S
O164       Cr173   2.016       .  S
O164        C172   1.270       .  A
O165       Cr173   2.063       .  S
O165        C166   1.279       .  A
C166        O167   1.258       .  A
C166       C2584   1.518       .  S
O167       Cr174   1.973       .  S
O168       Cr174   1.990       .  S
O168        C169   1.267       .  A
C169        O170   1.267       .  A
C169       C2601   1.475       .  S
O170       Cr175   1.992       .  S
O171       Cr175   1.998       .  S
O171        C172   1.263       .  A
C172       C2570   1.499       .  S
Cr173       O176   1.777       .  S
Cr174       O176   1.769       .  S
Cr175       O176   1.771       .  S
O177       Cr195   1.981       .  S
O177        C185   1.255       .  A
O178       Cr195   2.035       .  S
O178        C179   1.276       .  A
C179        O180   1.262       .  A
C179       C2472   1.472       .  S
O180       Cr196   1.941       .  S
O181       Cr196   2.022       .  S
O181        C182   1.263       .  A
C182        O183   1.253       .  A
C182       C2447   1.482       .  S
O183       Cr197   1.967       .  S
O184       Cr197   2.011       .  S
O184        C185   1.262       .  A
C185       C2461   1.488       .  S
O186       Cr195   2.059       .  S
O186        C194   1.282       .  A
O187       Cr195   2.005       .  S
O187        C188   1.266       .  A
C188        O189   1.259       .  A
C188       C2500   1.502       .  S
O189       Cr196   2.005       .  S
O190       Cr196   1.960       .  S
O190        C191   1.261       .  A
C191        O192   1.272       .  A
C191       C2517   1.462       .  S
O192       Cr197   2.025       .  S
O193       Cr197   1.941       .  S
O193        C194   1.255       .  A
C194       C2486   1.503       .  S
Cr195       O198   1.775       .  S
Cr196       O198   1.770       .  S
Cr197       O198   1.777       .  S
O199       Cr217   2.071       .  S
O199        C207   1.288       .  A
O200       Cr217   1.991       .  S
O200        C201   1.259       .  A
C201        O202   1.263       .  A
C201       C2388   1.480       .  S
O202       Cr218   2.003       .  S
O203       Cr218   1.954       .  S
O203        C204   1.255       .  A
C204        O205   1.260       .  A
C204       C2402   1.448       .  S
O205       Cr219   1.985       .  S
O206       Cr219   1.922       .  S
O206        C207   1.250       .  A
C207       C2503   1.496       .  S
O208       Cr217   2.028       .  S
O208        C216   1.264       .  A
O209       Cr217   2.080       .  S
O209        C210   1.282       .  A
C210        O211   1.255       .  A
C210       C2430   1.510       .  S
O211       Cr218   1.939       .  S
O212       Cr218   2.000       .  S
O212        C213   1.268       .  A
C213        O214   1.252       .  A
C213       C2416   1.448       .  S
O214       Cr219   1.961       .  S
O215       Cr219   1.972       .  S
O215        C216   1.253       .  A
C216       C2573   1.507       .  S
Cr217       O220   1.767       .  S
Cr218       O220   1.745       .  S
Cr219       O220   1.781       .  S
O221       Cr239   2.077       .  S
O221        C229   1.289       .  A
O222       Cr239   1.984       .  S
O222        C223   1.258       .  A
C223        O224   1.261       .  A
C223       C2346   1.476       .  S
O224       Cr240   1.989       .  S
O225       Cr240   1.949       .  S
O225        C226   1.255       .  A
C226        O227   1.267       .  A
C226       C2419   1.469       .  S
O227       Cr241   2.001       .  S
O228       Cr241   1.920       .  S
O228        C229   1.248       .  A
C229       C2587   1.500       .  S
O230       Cr239   2.010       .  S
O230        C238   1.260       .  A
O231       Cr239   2.075       .  S
O231        C232   1.281       .  A
C232        O233   1.255       .  A
C232       C2374   1.499       .  S
O233       Cr240   1.943       .  S
O234       Cr240   1.996       .  S
O234        C235   1.265       .  A
C235        O236   1.250       .  A
C235       C2363   1.449       .  S
O236       Cr241   1.949       .  S
O237       Cr241   1.988       .  S
O237        C238   1.258       .  A
C238       C2657   1.496       .  S
Cr239       O242   1.768       .  S
Cr240       O242   1.751       .  S
Cr241       O242   1.791       .  S
O243       Cr261   2.020       .  S
O243        C251   1.260       .  A
O244       Cr261   2.048       .  S
O244        C245   1.278       .  A
C245        O246   1.256       .  A
C245       C2318   1.478       .  S
O246       Cr262   1.949       .  S
O247       Cr262   1.978       .  S
O247        C248   1.261       .  A
C248        O249   1.250       .  A
C248       C2360   1.444       .  S
O249       Cr263   1.968       .  S
O250       Cr263   1.968       .  S
O250        C251   1.252       .  A
C251       C2671   1.511       .  S
O252       Cr261   2.071       .  S
O252        C260   1.287       .  A
O253       Cr261   2.033       .  S
O253        C254   1.270       .  A
C254        O255   1.260       .  A
C254       C2332   1.516       .  S
O255       Cr262   1.990       .  S
O256       Cr262   1.961       .  S
O256        C257   1.262       .  A
C257        O258   1.264       .  A
C257       C2405   1.450       .  S
O258       Cr263   1.987       .  S
O259       Cr263   1.928       .  S
O259        C260   1.253       .  A
C260       C2489   1.500       .  S
Cr261       O264   1.770       .  S
Cr262       O264   1.749       .  S
Cr263       O264   1.788       .  S
O265       Cr283   1.983       .  S
O265        C273   1.255       .  A
O266       Cr283   2.021   1_455  S
O266        C267   1.272       .  A
C267        O268   1.259   1_455  A
C267       C2279   1.466       .  S
O268       Cr284   1.954       .  S
O269       Cr284   2.015       .  S
O269        C270   1.261       .  A
C270        O271   1.252       .  A
C270       C2248   1.483       .  S
O271       Cr285   1.962       .  S
O272       Cr285   2.012       .  S
O272        C273   1.264       .  A
C273       C2265   1.509       .  S
O274       Cr283   2.052       .  S
O274        C282   1.278       .  A
O275       Cr283   2.003       .  S
O275        C276   1.266       .  A
C276        O277   1.265       .  A
C276       C2304   1.506       .  S
O277       Cr284   2.025       .  S
O278       Cr284   1.967       .  S
O278        C279   1.267       .  A
C279        O280   1.272       .  A
C279       C3021   1.472       .  S
O280       Cr285   2.026       .  S
O281       Cr285   1.941       .  S
O281        C282   1.254       .  A
C282       C2290   1.492       .  S
Cr283       O286   1.784       .  S
Cr284       O286   1.777       .  S
Cr285       O286   1.777       .  S
O287       Cr305   2.007       .  S
O287        C295   1.260       .  A
O288       Cr305   2.027       .  S
O288        C289   1.275       .  A
C289        O290   1.261       .  A
C289       C2192   1.464       .  S
O290       Cr306   1.947       .  S
O291       Cr306   2.015       .  S
O291        C292   1.256       .  A
C292        O293   1.244       .  A
C292       C2167   1.465       .  S
O293       Cr307   1.943       .  S
O294       Cr307   2.014       .  S
O294        C295   1.265       .  A
C295       C2178   1.524       .  S
O296       Cr305   2.060       .  S
O296        C304   1.280       .  A
O297       Cr305   2.006       .  S
O297        C298   1.266       .  A
C298        O299   1.260       .  A
C298       C2220   1.508       .  S
O299       Cr306   2.011       .  S
O300       Cr306   1.965       .  S
O300        C301   1.267       .  A
C301        O302   1.279       .  A
C301       C2234   1.484       .  S
O302       Cr307   2.044       .  S
O303       Cr307   1.942       .  S
O303        C304   1.255       .  A
C304       C2209   1.503       .  S
Cr305       O308   1.772       .  S
Cr306       O308   1.783       .  S
Cr307       O308   1.762       .  S
O309       Cr327   2.040       .  S
O309        C317   1.273       .  A
O310       Cr327   1.997       .  S
O310        C311   1.262       .  A
C311        O312   1.261       .  A
C311       C2979   1.484       .  S
O312       Cr328   1.984       .  S
O313       Cr328   1.992       .  S
O313        C314   1.261       .  A
C314        O315   1.260       .  A
C314       C2727   1.481       .  S
O315       Cr329   1.990       .  S
O316       Cr329   1.980       .  S
O316        C317   1.260       .  A
C317       C2797   1.511       .  S
O318       Cr327   2.030       .  S
O318        C326   1.273       .  A
O319       Cr327   2.045       .  S
O319        C320   1.275       .  A
C320        O321   1.263       .  A
C320       C2136   1.514   1_565  S
O321       Cr328   1.986       .  S
O322       Cr328   1.989       .  S
O322        C323   1.267       .  A
C323        O324   1.263       .  A
C323       C2150   1.473       .  S
O324       Cr329   1.979       .  S
O325       Cr329   2.000       .  S
O325        C326   1.264       .  A
C326       C2122   1.508       .  S
Cr327       O330   1.776       .  S
Cr328       O330   1.773       .  S
Cr329       O330   1.774       .  S
O331       Cr349   2.073       .  S
O331        C339   1.286       .  A
O332       Cr349   1.980       .  S
O332        C333   1.255       .  A
C333        O334   1.261       .  A
C333       C2083   1.467       .  S
O334       Cr350   1.994       .  S
O335       Cr350   1.954       .  S
O335        C336   1.255       .  A
C336        O337   1.262       .  A
C336       C2097   1.458       .  S
O337       Cr351   1.980       .  S
O338       Cr351   1.924       .  S
O338        C339   1.249       .  A
C339       C2139   1.502       .  S
O340       Cr349   2.007       .  S
O340        C348   1.263       .  A
O341       Cr349   2.077       .  S
O341        C342   1.284       .  A
C342        O343   1.259       .  A
C342       C3007   1.500       .  S
O343       Cr350   1.955       .  S
O344       Cr350   2.001       .  S
O344        C345   1.267       .  A
C345        O346   1.253       .  A
C345       C2108   1.446       .  S
O346       Cr351   1.961       .  S
O347       Cr351   1.973       .  S
O347        C348   1.253       .  A
C348       C2293   1.495       .  S
Cr349       O352   1.762       .  S
Cr350       O352   1.757       .  S
Cr351       O352   1.780       .  S
O353       Cr371   2.066       .  S
O353        C361   1.285       .  A
O354       Cr371   1.985   1_655  S
O354        C355   1.258       .  A
C355        O356   1.264       .  A
C355       C2993   1.485       .  S
O356       Cr372   1.999       .  S
O357       Cr372   1.953       .  S
O357        C358   1.255       .  A
C358        O359   1.264       .  A
C358       C2111   1.456       .  S
O359       Cr373   1.997   1_655  S
O360       Cr373   1.934       .  S
O360        C361   1.249       .  A
C361       C2307   1.502       .  S
O362       Cr371   2.013       .  S
O362        C370   1.266       .  A
O363       Cr371   2.076       .  S
O363        C364   1.282   1_455  A
C364        O365   1.260       .  A
C364       C2066   1.507       .  S
O365       Cr372   1.962       .  S
O366       Cr372   2.001       .  S
O366        C367   1.267   1_655  A
C367        O368   1.252       .  A
C367       C2052   1.453       .  S
O368       Cr373   1.964       .  S
O369       Cr373   1.980       .  S
O369        C370   1.258       .  A
C370       C2206   1.507       .  S
Cr371       O374   1.772       .  S
Cr372       O374   1.749   1_655  S
Cr373       O374   1.787       .  S
O375       Cr393   2.091       .  S
O375        C383   1.292       .  A
O376       Cr393   1.997       .  S
O376        C377   1.261       .  A
C377        O378   1.262       .  A
C377       C2024   1.484       .  S
O378       Cr394   1.994       .  S
O379       Cr394   1.963       .  S
O379        C380   1.257       .  A
C380        O381   1.262       .  A
C380       C2055   1.466       .  S
O381       Cr395   2.002       .  S
O382       Cr395   1.907       .  S
O382        C383   1.249       .  A
C383       C2223   1.513       .  S
O384       Cr393   2.042   1_565  S
O384        C392   1.265       .  A
O385       Cr393   2.079       .  S
O385        C386   1.283       .  A
C386        O387   1.260       .  A
C386       C2041   1.512       .  S
O387       Cr394   1.954       .  S
O388       Cr394   1.999       .  S
O388        C389   1.269       .  A
C389        O390   1.245       .  A
C389       C2094   1.436       .  S
O390       Cr395   1.942       .  S
O391       Cr395   1.973   1_565  S
O391        C392   1.253       .  A
C392       C2125   1.517       .  S
Cr393       O396   1.765       .  S
Cr394       O396   1.751       .  S
Cr395       O396   1.787       .  S
O397       Cr415   1.988       .  S
O397        C405   1.260       .  A
O398       Cr415   2.049       .  S
O398        C399   1.277       .  A
C399        O400   1.262       .  A
C399       C2038   1.512       .  S
O400       Cr416   1.974       .  S
O401       Cr416   1.969       .  S
O401        C402   1.254       .  A
C402        O403   1.261       .  A
C402       C2080   1.485       .  S
O403       Cr417   2.004       .  S
O404       Cr417   1.977       .  S
O404        C405   1.262       .  A
C405       C2153   1.481       .  S
O406       Cr415   2.045       .  S
O406        C414   1.275       .  A
O407       Cr415   2.027       .  S
O407        C408   1.269       .  A
C408        O409   1.254       .  A
C408       C1996   1.488       .  S
O409       Cr416   1.978       .  S
O410       Cr416   1.982       .  S
O410        C411   1.266       .  A
C411        O412   1.268       .  A
C411       C2559   1.470       .  S
O412       Cr417   1.994       .  S
O413       Cr417   1.985       .  S
O413        C414   1.263       .  A
C414       C2010   1.515       .  S
Cr415       O418   1.778       .  S
Cr416       O418   1.778       .  S
Cr417       O418   1.773       .  S
O419       Cr437   1.978       .  S
O419        C427   1.260       .  A
O420       Cr437   2.045       .  S
O420        C421   1.275       .  A
C421        O422   1.262       .  A
C421       C1940   1.507       .  S
O422       Cr438   1.988       .  S
O423       Cr438   1.979       .  S
O423        C424   1.256       .  A
C424        O425   1.260       .  A
C424       C1926   1.473       .  S
O425       Cr439   1.997       .  S
O426       Cr439   1.992       .  S
O426        C427   1.264       .  A
C427       C1954   1.476   1_556  S
O428       Cr437   2.045       .  S
O428        C436   1.274       .  A
O429       Cr437   2.016       .  S
O429        C430   1.269       .  A
C430        O431   1.261       .  A
C430       C1968   1.491       .  S
O431       Cr438   1.995       .  S
O432       Cr438   1.981       .  S
O432        C433   1.263       .  A
C433        O434   1.267       .  A
C433       C2195   1.461       .  S
O434       Cr439   1.996       .  S
O435       Cr439   1.994       .  S
O435        C436   1.263       .  A
C436       C1982   1.519   1_565  S
Cr437       O440   1.778       .  S
Cr438       O440   1.777       .  S
Cr439       O440   1.775       .  S
O441       Cr459   1.981       .  S
O441        C449   1.260       .  A
O442       Cr459   2.040       .  S
O442        C443   1.275       .  A
C443        O444   1.262       .  A
C443       C2377   1.500       .  S
O444       Cr460   1.972       .  S
O445       Cr460   2.007       .  S
O445        C446   1.262       .  A
C446        O447   1.259       .  A
C446       C2321   1.483       .  S
O447       Cr461   1.987       .  S
O448       Cr461   1.998       .  S
O448        C449   1.264       .  A
C449       C2685   1.481       .  S
O450       Cr459   2.059       .  S
O450        C458   1.277       .  A
O451       Cr459   2.017       .  S
O451        C452   1.271       .  A
C452        O453   1.262       .  A
C452       C1884   1.494       .  S
O453       Cr460   1.997       .  S
O454       Cr460   1.972       .  S
O454        C455   1.259       .  A
C455        O456   1.269       .  A
C455       C1915   1.462       .  S
O456       Cr461   2.006       .  S
O457       Cr461   1.980       .  S
O457        C458   1.260       .  A
C458       C1901   1.522       .  S
Cr459       O462   1.776       .  S
Cr460       O462   1.772       .  S
Cr461       O462   1.767       .  S
O463       Cr481   2.070       .  S
O463        C471   1.286       .  A
O464       Cr481   2.028       .  S
O464        C465   1.268       .  A
C465        O466   1.262       .  A
C465       C2545   1.511       .  S
O466       Cr482   2.003       .  S
O467       Cr482   1.944       .  S
O467        C468   1.260       .  A
C468        O469   1.268       .  A
C468       C1870   1.460       .  S
O469       Cr483   2.011       .  S
O470       Cr483   1.907       .  S
O470        C471   1.248       .  A
C471       C1999   1.490       .  S
O472       Cr481   2.021       .  S
O472        C480   1.260       .  A
O473       Cr481   2.039       .  S
O473        C474   1.277       .  A
C474        O475   1.258       .  A
C474       C1842   1.488       .  S
O475       Cr482   1.936       .  S
O476       Cr482   2.002       .  S
O476        C477   1.264       .  A
C477        O478   1.243       .  A
C477       C1859   1.440       .  S
O478       Cr483   1.949       .  S
O479       Cr483   1.973       .  S
O479        C480   1.254       .  A
C480       C1898   1.514       .  S
Cr481       O484   1.774       .  S
Cr482       O484   1.751       .  S
Cr483       O484   1.789       .  S
O485       Cr503   2.073   1_565  S
O485        C493   1.285       .  A
O486       Cr503   2.045       .  S
O486        C487   1.273       .  A
C487        O488   1.263       .  A
C487       C2181   1.525       .  S
O488       Cr504   2.003       .  S
O489       Cr504   1.958       .  S
O489        C490   1.261       .  A
C490        O491   1.266       .  A
C490       C1828   1.459       .  S
O491       Cr505   1.988       .  S
O492       Cr505   1.921   1_565  S
O492        C493   1.249       .  A
C493       C1971   1.497       .  S
O494       Cr503   2.038       .  S
O494        C502   1.265       .  A
O495       Cr503   2.045       .  S
O495        C496   1.278       .  A
C496        O497   1.258       .  A
C496       C2528   1.475       .  S
O497       Cr504   1.950       .  S
O498       Cr504   1.997       .  S
O498        C499   1.262       .  A
C499        O500   1.246       .  A
C499       C1873   1.447       .  S
O500       Cr505   1.958       .  S
O501       Cr505   1.975   1_565  S
O501        C502   1.255   1_565  A
C502       C2013   1.519       .  S
Cr503       O506   1.767       .  S
Cr504       O506   1.754       .  S
Cr505       O506   1.779       .  S
O507       Cr525   2.075       .  S
O507        C515   1.287       .  A
O508       Cr525   2.036       .  S
O508        C509   1.271   1_554  A
C509        O510   1.257       .  A
C509       C1814   1.515       .  S
O510       Cr526   1.988       .  S
O511       Cr526   1.954       .  S
O511        C512   1.260       .  A
C512        O513   1.270       .  A
C512       C1856   1.461       .  S
O513       Cr527   1.998   1_556  S
O514       Cr527   1.909       .  S
O514        C515   1.249       .  A
C515       C1887   1.502       .  S
O516       Cr525   2.032       .  S
O516        C524   1.262       .  A
O517       Cr525   2.023   1_556  S
O517        C518   1.274       .  A
C518        O519   1.258       .  A
C518       C2164   1.456       .  S
O519       Cr526   1.931       .  S
O520       Cr526   1.991       .  S
O520        C521   1.260       .  A
C521        O522   1.246       .  A
C521       C1831   1.440       .  S
O522       Cr527   1.960   1_556  S
O523       Cr527   1.973       .  S
O523        C524   1.252       .  A
C524       C1985   1.514       .  S
Cr525       O528   1.766   1_554  S
Cr526       O528   1.752       .  S
Cr527       O528   1.784   1_554  S
O529       Cr547   2.039       .  S
O529        C537   1.279       .  A
O530       Cr547   1.981       .  S
O530        C531   1.255       .  A
C531        O532   1.267       .  A
C531       C1761   1.509       .  S
O532       Cr548   2.017       .  S
O533       Cr548   1.982       .  S
O533        C534   1.253       .  A
C534        O535   1.251       .  A
C534       C1747   1.463       .  S
O535       Cr549   1.992       .  S
O536       Cr549   1.937       .  S
O536        C537   1.261       .  A
C537       C1772   1.465   1_455  S
O538       Cr547   2.005       .  S
O538        C546   1.260       .  A
O539       Cr547   2.044       .  S
O539        C540   1.277       .  A
C540        O541   1.258       .  A
C540       C1786   1.508       .  S
O541       Cr548   1.959       .  S
O542       Cr548   2.027       .  S
O542        C543   1.276       .  A
C543        O544   1.268       .  A
C543       C2475   1.465       .  S
O544       Cr549   1.958       .  S
O545       Cr549   1.998       .  S
O545        C546   1.253       .  A
C546       C1800   1.494       .  S
Cr547       O550   1.785       .  S
Cr548       O550   1.781       .  S
Cr549       O550   1.782       .  S
O551       Cr569   2.026   1_545  S
O551        C559   1.272       .  A
O552       Cr569   2.012       .  S
O552        C553   1.260       .  A
C553        O554   1.265       .  A
C553       C1674   1.525       .  S
O554       Cr570   2.016       .  S
O555       Cr570   1.957       .  S
O555        C556   1.251       .  A
C556        O557   1.265       .  A
C556       C1660   1.480       .  S
O557       Cr571   2.020       .  S
O558       Cr571   1.934   1_545  S
O558        C559   1.258       .  A
C559       C1691   1.465       .  S
O560       Cr569   2.018       .  S
O560        C568   1.270       .  A
O561       Cr569   2.065       .  S
O561        C562   1.282       .  A
C562        O563   1.256       .  A
C562       C1702   1.492       .  S
O563       Cr570   1.946       .  S
O564       Cr570   2.036       .  S
O564        C565   1.273       .  A
C565        O566   1.261       .  A
C565       C1730   1.475       .  S
O566       Cr571   1.966       .  S
O567       Cr571   2.005       .  S
O567        C568   1.262       .  A
C568       C1716   1.515   1_565  S
Cr569       O572   1.781       .  S
Cr570       O572   1.780       .  S
Cr571       O572   1.772       .  S
O573       Cr591   2.022       .  S
O573        C581   1.275       .  A
O574       Cr591   1.995       .  S
O574        C575   1.257       .  A
C575        O576   1.264       .  A
C575       C2433   1.498       .  S
O576       Cr592   2.007       .  S
O577       Cr592   1.961       .  S
O577        C578   1.249       .  A
C578        O579   1.254       .  A
C578       C2349   1.467       .  S
O579       Cr593   2.006       .  S
O580       Cr593   1.953       .  S
O580        C581   1.264       .  A
C581       C2598   1.462       .  S
O582       Cr591   2.009       .  S
O582        C590   1.262       .  A
O583       Cr591   2.032       .  S
O583        C584   1.275       .  A
C584        O585   1.256       .  A
C584       C1621   1.500       .  S
O585       Cr592   1.960       .  S
O586       Cr592   2.012       .  S
O586        C587   1.271       .  A
C587        O588   1.266       .  A
C587       C1646   1.459       .  S
O588       Cr593   1.969       .  S
O589       Cr593   1.997       .  S
O589        C590   1.254       .  A
C590       C1635   1.496       .  S
Cr591       O594   1.789       .  S
Cr592       O594   1.782       .  S
Cr593       O594   1.785       .  S
O595       Cr613   2.019       .  S
O595        C603   1.265       .  A
O596       Cr613   2.054       .  S
O596        C597   1.276       .  A
C597        O598   1.258       .  A
C597       C2458   1.484       .  S
O598       Cr614   1.961       .  S
O599       Cr614   2.005       .  S
O599        C600   1.267       .  A
C600        O601   1.251       .  A
C600       C1604   1.454       .  S
O601       Cr615   1.959       .  S
O602       Cr615   1.977       .  S
O602        C603   1.258       .  A
C603       C1789   1.508       .  S
O604       Cr613   2.058       .  S
O604        C612   1.282       .  A
O605       Cr613   1.990       .  S
O605        C606   1.261       .  A
C606        O607   1.266       .  A
C606       C1579   1.497       .  S
O607       Cr614   2.008       .  S
O608       Cr614   1.949       .  S
O608        C609   1.256       .  A
C609        O610   1.260       .  A
C609       C1593   1.448       .  S
O610       Cr615   1.982       .  S
O611       Cr615   1.938       .  S
O611        C612   1.249       .  A
C612       C1632   1.495       .  S
Cr613       O616   1.771       .  S
Cr614       O616   1.750       .  S
Cr615       O616   1.782       .  S
O617       Cr635   2.019   1_655  S
O617        C625   1.261       .  A
O618       Cr635   2.051       .  S
O618        C619   1.276       .  A
C619        O620   1.259       .  A
C619       C1562   1.502       .  S
O620       Cr636   1.960       .  S
O621       Cr636   1.997       .  S
O621        C622   1.269       .  A
C622        O623   1.252   1_455  A
C622       C1548   1.447       .  S
O623       Cr637   1.949       .  S
O624       Cr637   1.988       .  S
O624        C625   1.255       .  A
C625       C1705   1.499       .  S
O626       Cr635   2.062   1_655  S
O626        C634   1.286       .  A
O627       Cr635   1.990       .  S
O627        C628   1.261       .  A
C628        O629   1.260       .  A
C628       C2444   1.477       .  S
O629       Cr636   1.981       .  S
O630       Cr636   1.953       .  S
O630        C631   1.252       .  A
C631        O632   1.261       .  A
C631       C1607   1.467       .  S
O632       Cr637   2.007   1_455  S
O633       Cr637   1.924       .  S
O633        C634   1.252       .  A
C634       C1803   1.491       .  S
Cr635       O638   1.773       .  S
Cr636       O638   1.754       .  S
Cr637       O638   1.800   1_655  S
O639       Cr657   2.062       .  S
O639        C647   1.284       .  A
O640       Cr657   2.046       .  S
O640        C641   1.273   1_545  A
C641        O642   1.260       .  A
C641       C1537   1.518       .  S
O642       Cr658   1.993       .  S
O643       Cr658   1.958       .  S
O643        C644   1.263   1_565  A
C644        O645   1.263       .  A
C644       C1590   1.455   1_545  S
O645       Cr659   1.985       .  S
O646       Cr659   1.930       .  S
O646        C647   1.253       .  A
C647       C1618   1.495       .  S
O648       Cr657   2.035       .  S
O648        C656   1.264       .  A
O649       Cr657   2.029       .  S
O649        C650   1.274   1_545  A
C650        O651   1.256       .  A
C650       C1523   1.468       .  S
O651       Cr658   1.944       .  S
O652       Cr658   1.983       .  S
O652        C653   1.260       .  A
C653        O654   1.250   1_565  A
C653       C1551   1.448       .  S
O654       Cr659   1.966       .  S
O655       Cr659   1.970       .  S
O655        C656   1.253       .  A
C656       C1719   1.517       .  S
Cr657       O660   1.771       .  S
Cr658       O660   1.750   1_565  S
Cr659       O660   1.786       .  S
O661       Cr679   2.033       .  S
O661        C669   1.273       .  A
O662       Cr679   1.975       .  S
O662        C663   1.257       .  A
C663        O664   1.263       .  A
C663       C1733   1.470   1_455  S
O664       Cr680   2.003       .  S
O665       Cr680   1.983       .  S
O665        C666   1.258       .  A
C666        O667   1.257       .  A
C666       C1520   1.468       .  S
O667       Cr681   1.988       .  S
O668       Cr681   1.985       .  S
O668        C669   1.264       .  A
C669       C1565   1.500       .  S
O670       Cr679   2.003       .  S
O670        C678   1.270       .  A
O671       Cr679   2.051       .  S
O671        C672   1.276       .  A
C672        O673   1.261       .  A
C672       C1509   1.518       .  S
O673       Cr680   1.980       .  S
O674       Cr680   2.001       .  S
O674        C675   1.270       .  A
C675        O676   1.265       .  A
C675       C1957   1.479       .  S
O676       Cr681   1.983       .  S
O677       Cr681   1.995       .  S
O677        C678   1.259       .  A
C678       C1492   1.494       .  S
Cr679       O682   1.772       .  S
Cr680       O682   1.774       .  S
Cr681       O682   1.776       .  S
O683       Cr701   1.994       .  S
O683        C691   1.258       .  A
O684       Cr701   2.026       .  S
O684        C685   1.274   1_556  A
C685        O686   1.259   1_554  A
C685       C1912   1.458       .  S
O686       Cr702   1.940       .  S
O687       Cr702   2.018       .  S
O687        C688   1.258       .  A
C688        O689   1.250       .  A
C688       C1845   1.469       .  S
O689       Cr703   1.962       .  S
O690       Cr703   2.013       .  S
O690        C691   1.265       .  A
C691       C1817   1.510       .  S
O692       Cr701   2.053       .  S
O692        C700   1.280       .  A
O693       Cr701   2.014       .  S
O693        C694   1.266       .  A
C694        O695   1.262       .  A
C694       C1478   1.514       .  S
O695       Cr702   2.010       .  S
O696       Cr702   1.958       .  S
O696        C697   1.265       .  A
C697        O698   1.275       .  A
C697       C2853   1.475       .  S
O698       Cr703   2.036       .  S
O699       Cr703   1.941       .  S
O699        C700   1.252       .  A
C700       C1464   1.500       .  S
Cr701       O704   1.780       .  S
Cr702       O704   1.775       .  S
Cr703       O704   1.773       .  S
O705       Cr723   2.008       .  S
O705        C713   1.259       .  A
O706       Cr723   2.047       .  S
O706        C707   1.283       .  A
C707        O708   1.264       .  A
C707       C3063   1.477       .  S
O708       Cr724   1.937       .  S
O709       Cr724   2.003       .  S
O709        C710   1.255       .  A
C710        O711   1.252       .  A
C710       C2769   1.464       .  S
O711       Cr725   1.977       .  S
O712       Cr725   1.996       .  S
O712        C713   1.259       .  A
C713       C2713   1.518       .  S
O714       Cr723   2.061       .  S
O714        C722   1.282       .  A
O715       Cr723   2.013       .  S
O715        C716   1.261       .  A
C716        O717   1.253       .  A
C716       C1450   1.508       .  S
O717       Cr724   1.989       .  S
O718       Cr724   1.972       .  S
O718        C719   1.267       .  A
C719        O720   1.273       .  A
C719       C1775   1.476       .  S
O720       Cr725   2.027       .  S
O721       Cr725   1.951       .  S
O721        C722   1.256       .  A
C722       C1436   1.509       .  S
Cr723       O726   1.790       .  S
Cr724       O726   1.781       .  S
Cr725       O726   1.782       .  S
O727       Cr745   2.030       .  S
O727        C735   1.264       .  A
O728       Cr745   2.033   1_556  S
O728        C729   1.272       .  A
C729        O730   1.252       .  A
C729       C2822   1.462       .  S
O730       Cr746   1.931       .  S
O731       Cr746   1.995       .  S
O731        C732   1.265       .  A
C732        O733   1.246       .  A
C732       C1408   1.442       .  S
O733       Cr747   1.951   1_556  S
O734       Cr747   1.979       .  S
O734        C735   1.257       .  A
C735       C1481   1.515       .  S
O736       Cr745   2.064       .  S
O736        C744   1.282       .  A
O737       Cr745   2.028       .  S
O737        C738   1.272   1_554  A
C738        O739   1.264       .  A
C738       C1943   1.500       .  S
O739       Cr746   2.011       .  S
O740       Cr746   1.958       .  S
O740        C741   1.260       .  A
C741        O742   1.262       .  A
C741       C1422   1.452       .  S
O742       Cr747   1.990   1_556  S
O743       Cr747   1.927       .  S
O743        C744   1.252       .  A
C744       C1495   1.492       .  S
Cr745       O748   1.771   1_554  S
Cr746       O748   1.752       .  S
Cr747       O748   1.771   1_554  S
O749       Cr767   2.081   1_655  S
O749        C757   1.291   1_655  A
O750       Cr767   1.988       .  S
O750        C751   1.260       .  A
C751        O752   1.263       .  A
C751       C1929   1.481       .  S
O752       Cr768   1.992       .  S
O753       Cr768   1.944       .  S
O753        C754   1.254       .  A
C754        O755   1.261       .  A
C754       C1425   1.450       .  S
O755       Cr769   1.995       .  S
O756       Cr769   1.946       .  S
O756        C757   1.256       .  A
C757       C1506   1.508       .  S
O758       Cr767   2.029   1_655  S
O758        C766   1.267       .  A
O759       Cr767   2.079       .  S
O759        C760   1.281       .  A
C760        O761   1.250       .  A
C760       C1758   1.492       .  S
O761       Cr768   1.943       .  S
O762       Cr768   1.987       .  S
O762        C763   1.266       .  A
C763        O764   1.255   1_455  A
C763       C1397   1.449       .  S
O764       Cr769   1.967   1_655  S
O765       Cr769   1.975   1_655  S
O765        C766   1.253       .  A
C766       C1439   1.507       .  S
Cr767       O770   1.768       .  S
Cr768       O770   1.746       .  S
Cr769       O770   1.782       .  S
O771       Cr789   2.019       .  S
O771        C779   1.263       .  A
O772       Cr789   2.040       .  S
O772        C773   1.276       .  A
C773        O774   1.255       .  A
C773       C1744   1.462       .  S
O774       Cr790   1.941       .  S
O775       Cr790   1.990       .  S
O775        C776   1.261       .  A
C776        O777   1.247       .  A
C776       C1394   1.446       .  S
O777       Cr791   1.956       .  S
O778       Cr791   1.975       .  S
O778        C779   1.257       .  A
C779       C1453   1.511       .  S
O780       Cr789   2.055       .  S
O780        C788   1.282       .  A
O781       Cr789   2.029       .  S
O781        C782   1.269       .  A
C782        O783   1.261       .  A
C782       C2839   1.507       .  S
O783       Cr790   1.993       .  S
O784       Cr790   1.945       .  S
O784        C785   1.259       .  A
C785        O786   1.267       .  A
C785       C1411   1.459       .  S
O786       Cr791   1.997       .  S
O787       Cr791   1.929       .  S
O787        C788   1.251       .  A
C788       C1467   1.482       .  S
Cr789       O792   1.768       .  S
Cr790       O792   1.753       .  S
Cr791       O792   1.781       .  S
O793       Cr811   1.978       .  S
O793        C801   1.258       .  A
O794       Cr811   2.041       .  S
O794        C795   1.276       .  A
C795        O796   1.262       .  A
C795       C1341   1.503       .  S
O796       Cr812   1.978       .  S
O797       Cr812   1.977       .  S
O797        C798   1.253       .  A
C798        O799   1.263       .  A
C798       C1324   1.478       .  S
O799       Cr813   2.011       .  S
O800       Cr813   1.987       .  S
O800        C801   1.265       .  A
C801       C1355   1.476   1_554  S
O802       Cr811   2.038       .  S
O802        C810   1.273       .  A
O803       Cr811   2.021       .  S
O803        C804   1.266       .  A
C804        O805   1.257       .  A
C804       C1366   1.495       .  S
O805       Cr812   1.990       .  S
O806       Cr812   1.989       .  S
O806        C807   1.269       .  A
C807        O808   1.269       .  A
C807       C2640   1.474       .  S
O808       Cr813   1.993       .  S
O809       Cr813   1.985       .  S
O809        C810   1.263       .  A
C810       C1380   1.515       .  S
Cr811       O814   1.786       .  S
Cr812       O814   1.780       .  S
Cr813       O814   1.771       .  S
O815       Cr833   1.992       .  S
O815        C823   1.263   1_655  A
O816       Cr833   2.033       .  S
O816        C817   1.269       .  A
C817        O818   1.262       .  A
C817       C2069   1.499       .  S
O818       Cr834   1.993       .  S
O819       Cr834   1.984       .  S
O819        C820   1.257       .  A
C820        O821   1.263       .  A
C820       C2027   1.494       .  S
O821       Cr835   2.004       .  S
O822       Cr835   1.998       .  S
O822        C823   1.263   1_655  A
C823       C2237   1.472       .  S
O824       Cr833   2.020       .  S
O824        C832   1.270       .  A
O825       Cr833   2.011       .  S
O825        C826   1.269       .  A
C826        O827   1.263       .  A
C826       C1282   1.504       .  S
O827       Cr834   2.009       .  S
O828       Cr834   1.989       .  S
O828        C829   1.266       .  A
C829        O830   1.270       .  A
C829       C1310   1.474       .  S
O830       Cr835   2.010       .  S
O831       Cr835   2.012       .  S
O831        C832   1.269       .  A
C832       C1296   1.516       .  S
Cr833       O836   1.775       .  S
Cr834       O836   1.778       .  S
Cr835       O836   1.777       .  S
O837       Cr855   1.977       .  S
O837        C845   1.258       .  A
O838       Cr855   2.035       .  S
O838        C839   1.274       .  A
C839        O840   1.263       .  A
C839       C2335   1.503       .  S
O840       Cr856   1.985       .  S
O841       Cr856   1.984       .  S
O841        C842   1.257       .  A
C842        O843   1.263       .  A
C842       C2391   1.493       .  S
O843       Cr857   2.009       .  S
O844       Cr857   1.992       .  S
O844        C845   1.262       .  A
C845       C2514   1.464       .  S
O846       Cr855   2.039       .  S
O846        C854   1.274       .  A
O847       Cr855   2.025       .  S
O847        C848   1.269       .  A
C848        O849   1.260       .  A
C848       C1257   1.499       .  S
O849       Cr856   1.992       .  S
O850       Cr856   1.988       .  S
O850        C851   1.266       .  A
C851        O852   1.270       .  A
C851       C2276   1.473       .  S
O852       Cr857   2.002       .  S
O853       Cr857   2.004       .  S
O853        C854   1.267       .  A
C854       C1271   1.525       .  S
Cr855       O858   1.778       .  S
Cr856       O858   1.779       .  S
Cr857       O858   1.776       .  S
O859       Cr877   2.020       .  S
O859        C867   1.262       .  A
O860       Cr877   2.077       .  S
O860        C861   1.282       .  A
C861        O862   1.257       .  A
C861       C2629   1.511       .  S
O862       Cr878   1.944       .  S
O863       Cr878   1.994       .  S
O863        C864   1.264       .  A
C864        O865   1.251       .  A
C864       C1240   1.453       .  S
O865       Cr879   1.966       .  S
O866       Cr879   1.976       .  S
O866        C867   1.256       .  A
C867       C1369   1.509       .  S
O868       Cr877   2.092       .  S
O868        C876   1.293       .  A
O869       Cr877   1.963       .  S
O869        C870   1.257       .  A
C870        O871   1.260       .  A
C870       C2251   1.476       .  S
O871       Cr878   1.992       .  S
O872       Cr878   1.946       .  S
O872        C873   1.256       .  A
C873        O874   1.262       .  A
C873       C1226   1.462       .  S
O874       Cr879   1.993       .  S
O875       Cr879   1.941       .  S
O875        C876   1.254       .  A
C876       C1268   1.520       .  S
Cr877       O880   1.769       .  S
Cr878       O880   1.754       .  S
Cr879       O880   1.788       .  S
O881       Cr899   2.074       .  S
O881        C889   1.284       .  A
O882       Cr899   2.023   1_554  S
O882        C883   1.272       .  A
C883        O884   1.267       .  A
C883       C1212   1.513       .  S
O884       Cr900   2.006       .  S
O885       Cr900   1.951       .  S
O885        C886   1.259       .  A
C886        O887   1.263       .  A
C886       C1201   1.464       .  S
O887       Cr901   1.991       .  S
O888       Cr901   1.942   1_556  S
O888        C889   1.255       .  A
C889       C1285   1.505       .  S
O890       Cr899   2.033       .  S
O890        C898   1.263       .  A
O891       Cr899   2.040   1_554  S
O891        C892   1.272       .  A
C892        O893   1.253       .  A
C892       C2615   1.464       .  S
O893       Cr900   1.939       .  S
O894       Cr900   1.995       .  S
O894        C895   1.264       .  A
C895        O896   1.250       .  A
C895       C1243   1.458       .  S
O896       Cr901   1.965       .  S
O897       Cr901   1.971   1_556  S
O897        C898   1.255       .  A
C898       C1383   1.515       .  S
Cr899       O902   1.776   1_556  S
Cr900       O902   1.750       .  S
Cr901       O902   1.775       .  S
O903       Cr921   2.014       .  S
O903        C911   1.265       .  A
O904       Cr921   2.070       .  S
O904        C905   1.279   1_455  A
C905        O906   1.254       .  A
C905       C2262   1.494       .  S
O906       Cr922   1.952       .  S
O907       Cr922   1.992       .  S
O907        C908   1.266       .  A
C908        O909   1.250   1_655  A
C908       C1229   1.448       .  S
O909       Cr923   1.956       .  S
O910       Cr923   1.986       .  S
O910        C911   1.262       .  A
C911       C1254   1.509       .  S
O912       Cr921   2.080       .  S
O912        C920   1.287       .  A
O913       Cr921   1.973   1_655  S
O913        C914   1.258       .  A
C914        O915   1.263       .  A
C914       C1184   1.472       .  S
O915       Cr922   1.995       .  S
O916       Cr922   1.943       .  S
O916        C917   1.253       .  A
C917        O918   1.264       .  A
C917       C1198   1.464       .  S
O918       Cr923   2.006   1_655  S
O919       Cr923   1.940       .  S
O919        C920   1.253       .  A
C920       C1299   1.512       .  S
Cr921       O924   1.773   1_455  S
Cr922       O924   1.748       .  S
Cr923       O924   1.780   1_455  S
O925       Cr943   1.995       .  S
O925        C933   1.258       .  A
O926       Cr943   2.042       .  S
O926        C927   1.278       .  A
C927        O928   1.257       .  A
C927       C1313   1.473   1_554  S
O928       Cr944   1.943       .  S
O929       Cr944   2.016       .  S
O929        C930   1.261       .  A
C930        O931   1.251       .  A
C930       C1187   1.483       .  S
O931       Cr945   1.962       .  S
O932       Cr945   2.011       .  S
O932        C933   1.264       .  A
C933       C1215   1.513       .  S
O934       Cr943   2.069       .  S
O934        C942   1.283       .  A
O935       Cr943   2.020       .  S
O935        C936   1.269       .  A
C936        O937   1.265       .  A
C936       C1170   1.526       .  S
O937       Cr944   2.029       .  S
O938       Cr944   1.953       .  S
O938        C939   1.265       .  A
C939        O940   1.271       .  A
C939       C1688   1.467       .  S
O940       Cr945   2.026       .  S
O941       Cr945   1.948       .  S
O941        C942   1.255       .  A
C942       C1159   1.505       .  S
Cr943       O946   1.776       .  S
Cr944       O946   1.777       .  S
Cr945       O946   1.779       .  S
O947       Cr965   2.046       .  S
O947        C955   1.277       .  A
O948       Cr965   1.976   1_545  S
O948        C949   1.256       .  A
C949        O950   1.259       .  A
C949       C1649   1.460       .  S
O950       Cr966   1.988   1_545  S
O951       Cr966   2.009       .  S
O951        C952   1.264       .  A
C952        O953   1.258       .  A
C952       C1576   1.485       .  S
O953       Cr967   1.983       .  S
O954       Cr967   1.978       .  S
O954        C955   1.262       .  A
C955       C1534   1.519       .  S
O956       Cr965   2.027       .  S
O956        C964   1.269       .  A
O957       Cr965   2.047       .  S
O957        C958   1.276       .  A
C958        O959   1.267       .  A
C958       C1142   1.524   1_565  S
O959       Cr966   1.996       .  S
O960       Cr966   1.993       .  S
O960        C961   1.267       .  A
C961        O962   1.264       .  A
C961       C2937   1.467       .  S
O962       Cr967   1.981       .  S
O963       Cr967   1.998       .  S
O963        C964   1.261       .  A
C964       C1128   1.502       .  S
Cr965       O968   1.777       .  S
Cr966       O968   1.779       .  S
Cr967       O968   1.777       .  S
O969       Cr987   2.054       .  S
O969        C977   1.279       .  A
O970       Cr987   1.958       .  S
O970        C971   1.253       .  A
C971        O972   1.262       .  A
C971       C2895   1.450       .  S
O972       Cr988   1.993       .  S
O973       Cr988   1.989       .  S
O973        C974   1.259       .  A
C974        O975   1.259       .  A
C974       C2696   1.479       .  S
O975       Cr989   1.989       .  S
O976       Cr989   1.979       .  S
O976        C977   1.261       .  A
C977       C2755   1.526       .  S
O978       Cr987   2.009       .  S
O978        C986   1.266       .  A
O979       Cr987   2.055       .  S
O979        C980   1.277       .  A
C980        O981   1.261       .  A
C980       C1114   1.522       .  S
O981       Cr988   1.985       .  S
O982       Cr988   1.990       .  S
O982        C983   1.268       .  A
C983        O984   1.266       .  A
C983       C1352   1.477       .  S
O984       Cr989   1.985       .  S
O985       Cr989   2.009       .  S
O985        C986   1.264       .  A
C986       C1100   1.489       .  S
Cr987       O990   1.775       .  S
Cr988       O990   1.768       .  S
Cr989       O990   1.779       .  S
O991      Cr1009   2.087       .  S
O991        C999   1.291       .  A
O992      Cr1009   1.964   1_554  S
O992        C993   1.254       .  A
C993        O994   1.261       .  A
C993       C1663   1.466       .  S
O994      Cr1010   1.994       .  S
O995      Cr1010   1.952       .  S
O995        C996   1.257       .  A
C996        O997   1.261       .  A
C996       C1089   1.459       .  S
O997      Cr1011   1.989   1_554  S
O998      Cr1011   1.939       .  S
O998        C999   1.253       .  A
C999       C1173   1.528   1_556  S
O1000     Cr1009   2.011       .  S
O1000      C1008   1.259       .  A
O1001     Cr1009   2.073   1_554  S
O1001      C1002   1.282       .  A
C1002      O1003   1.259       .  A
C1002      C1338   1.504       .  S
O1003     Cr1010   1.954       .  S
O1004     Cr1010   1.988       .  S
O1004      C1005   1.266       .  A
C1005      O1006   1.257   1_554  A
C1005      C1075   1.453       .  S
O1006     Cr1011   1.973       .  S
O1007     Cr1011   1.977       .  S
O1007      C1008   1.255       .  A
C1008      C1103   1.498       .  S
Cr1009     O1012   1.774   1_556  S
Cr1010     O1012   1.752       .  S
Cr1011     O1012   1.789   1_556  S
O1013     Cr1031   2.077       .  S
O1013      C1021   1.289       .  A
O1014     Cr1031   1.988       .  S
O1014      C1015   1.258       .  A
C1015      O1016   1.264       .  A
C1015      C1327   1.492       .  S
O1016     Cr1032   2.001       .  S
O1017     Cr1032   1.960       .  S
O1017      C1018   1.258       .  A
C1018      O1019   1.267       .  A
C1018      C1072   1.475       .  S
O1019     Cr1033   2.006       .  S
O1020     Cr1033   1.925       .  S
O1020      C1021   1.247       .  A
C1021      C1117   1.500       .  S
O1022     Cr1031   2.024       .  S
O1022      C1030   1.265       .  A
O1023     Cr1031   2.086       .  S
O1023      C1024   1.284       .  A
C1024      O1025   1.260       .  A
C1024      C2923   1.518       .  S
O1025     Cr1032   1.961       .  S
O1026     Cr1032   2.000       .  S
O1026      C1027   1.266       .  A
C1027      O1028   1.248       .  A
C1027      C1058   1.442       .  S
O1028     Cr1033   1.954       .  S
O1029     Cr1033   1.983       .  S
O1029      C1030   1.258       .  A
C1030      C1131   1.513       .  S
Cr1031     O1034   1.766       .  S
Cr1032     O1034   1.750       .  S
Cr1033     O1034   1.786       .  S
O1035     Cr1053   2.028       .  S
O1035      C1043   1.263       .  A
O1036     Cr1053   2.033   1_565  S
O1036      C1037   1.276       .  A
C1037      O1038   1.260       .  A
C1037      C2909   1.481       .  S
O1038     Cr1054   1.961       .  S
O1039     Cr1054   1.999       .  S
O1039      C1040   1.262       .  A
C1040      O1041   1.247   1_565  A
C1040      C1061   1.449       .  S
O1041     Cr1055   1.962       .  S
O1042     Cr1055   1.976       .  S
O1042      C1043   1.257       .  A
C1043      C1145   1.520       .  S
O1044     Cr1053   2.065       .  S
O1044      C1052   1.284       .  A
O1045     Cr1053   2.039       .  S
O1045      C1046   1.272       .  A
C1046      O1047   1.262   1_545  A
C1046      C1677   1.526   1_545  S
O1047     Cr1054   2.004       .  S
O1048     Cr1054   1.958       .  S
O1048      C1049   1.262   1_565  A
C1049      O1050   1.268       .  A
C1049      C1086   1.461       .  S
O1050     Cr1055   2.001       .  S
O1051     Cr1055   1.926       .  S
O1051      C1052   1.249       .  A
C1052      C1156   1.490       .  S
Cr1053     O1056   1.769       .  S
Cr1054     O1056   1.752   1_565  S
Cr1055     O1056   1.787       .  S
C1057      C1058   1.394       .  A
C1057      C1062   1.387       .  A
C1057      H1064   1.085       .  S
C1058      C1059   1.405       .  A
C1059      C1060   1.403       .  A
C1059      N1066   1.437       .  S
C1060      C1061   1.400       .  A
C1060      H1065   1.081       .  S
C1061      C1062   1.401       .  A
C1062      N1063   1.430       .  S
N1063      H1067   1.045       .  S
N1063      H1068   1.046       .  S
N1066      H1069   1.046       .  S
N1066      H1070   1.046       .  S
C1071      C1072   1.404       .  A
C1071      C1076   1.403       .  A
C1071      H1078   1.083       .  S
C1072      C1073   1.414       .  A
C1073      C1074   1.395       .  A
C1073      N1080   1.433       .  S
C1074      C1075   1.397       .  A
C1074      H1079   1.085       .  S
C1075      C1076   1.406       .  A
C1076      N1077   1.437   1_554  S
N1077      H1081   1.046   1_556  S
N1077      H1082   1.045       .  S
N1080      H1083   1.046       .  S
N1080      H1084   1.045       .  S
C1085      C1086   1.402   1_565  A
C1085      C1090   1.392       .  A
C1085      H1092   1.082   1_565  S
C1086      C1087   1.404   1_545  A
C1087      C1088   1.390       .  A
C1087      N1094   1.433   1_565  S
C1088      C1089   1.403       .  A
C1088      H1093   1.085       .  S
C1089      C1090   1.412       .  A
C1090      N1091   1.433       .  S
N1091      H1095   1.046       .  S
N1091      H1096   1.045       .  S
N1094      H1097   1.045   1_545  S
N1094      H1098   1.046       .  S
C1099      C1100   1.404       .  A
C1099      C1104   1.413       .  A
C1099      H1106   1.084       .  S
C1100      C1101   1.411       .  A
C1101      C1102   1.410       .  A
C1101      N1108   1.438       .  S
C1102      C1103   1.410       .  A
C1102      H1107   1.084       .  S
C1103      C1104   1.421       .  A
C1104      N1105   1.438       .  S
N1105      H1109   1.046       .  S
N1105      H1110   1.043       .  S
N1108      H1111   1.046       .  S
N1108      H1112   1.046       .  S
C1113      C1114   1.410       .  A
C1113      C1118   1.416   1_556  A
C1113      H1120   1.083       .  S
C1114      C1115   1.428   1_556  A
C1115      C1116   1.414       .  A
C1115      N1122   1.432       .  S
C1116      C1117   1.405       .  A
C1116      H1121   1.079       .  S
C1117      C1118   1.415       .  A
C1118      N1119   1.432       .  S
N1119      H1123   1.046   1_554  S
N1119      H1124   1.046       .  S
N1122      H1125   1.045       .  S
N1122      H1126   1.045   1_554  S
C1127      C1128   1.408       .  A
C1127      C1132   1.412       .  A
C1127      H1134   1.084       .  S
C1128      C1129   1.410       .  A
C1129      C1130   1.420       .  A
C1129      N1136   1.437       .  S
C1130      C1131   1.417       .  A
C1130      H1135   1.083       .  S
C1131      C1132   1.414       .  A
C1132      N1133   1.432       .  S
N1133      H1137   1.046       .  S
N1133      H1138   1.046       .  S
N1136      H1139   1.046       .  S
N1136      H1140   1.045       .  S
C1141      C1142   1.415       .  A
C1141      C1146   1.422       .  A
C1141      H1148   1.083   1_545  S
C1142      C1143   1.422       .  A
C1143      C1144   1.412       .  A
C1143      N1150   1.432       .  S
C1144      C1145   1.412       .  A
C1144      H1149   1.083       .  S
C1145      C1146   1.417       .  A
C1146      N1147   1.437       .  S
N1147      H1151   1.045       .  S
N1147      H1152   1.046       .  S
N1150      H1153   1.045       .  S
N1150      H1154   1.046   1_545  S
C1155      C1156   1.397       .  A
C1155      C1160   1.407       .  A
C1155      H1162   1.084       .  S
C1156      C1157   1.425       .  A
C1157      C1158   1.412       .  A
C1157      N1164   1.433       .  S
C1158      C1159   1.404       .  A
C1158      H1163   1.083       .  S
C1159      C1160   1.422       .  A
C1160      N1161   1.430       .  S
N1161      H1165   1.045       .  S
N1161      H1166   1.046       .  S
N1164      H1167   1.046       .  S
N1164      H1168   1.043       .  S
C1169      C1170   1.421       .  A
C1169      C1174   1.431       .  A
C1169      H1176   1.083       .  S
C1170      C1171   1.411       .  A
C1171      C1172   1.412       .  A
C1171      N1178   1.432       .  S
C1172      C1173   1.417   1_545  A
C1172      H1177   1.084   1_554  S
C1173      C1174   1.415   1_565  A
C1174      N1175   1.431   1_545  S
N1175      H1179   1.045   1_554  S
N1175      H1180   1.046       .  S
N1178      H1181   1.046       .  S
N1178      H1182   1.045       .  S
C1183      C1184   1.400       .  A
C1183      C1188   1.396       .  A
C1183      H1190   1.084       .  S
C1184      C1185   1.409       .  A
C1185      C1186   1.407       .  A
C1185      N1192   1.437       .  S
C1186      C1187   1.409       .  A
C1186      H1191   1.083       .  S
C1187      C1188   1.412       .  A
C1188      N1189   1.432       .  S
N1189      H1193   1.044       .  S
N1189      H1194   1.046       .  S
N1192      H1195   1.046       .  S
N1192      H1196   1.046       .  S
C1197      C1198   1.402       .  A
C1197      C1202   1.388       .  A
C1197      H1204   1.083       .  S
C1198      C1199   1.406       .  A
C1199      C1200   1.398       .  A
C1199      N1206   1.431       .  S
C1200      C1201   1.405       .  A
C1200      H1205   1.084       .  S
C1201      C1202   1.408       .  A
C1202      N1203   1.433       .  S
N1203      H1207   1.046       .  S
N1203      H1208   1.045       .  S
N1206      H1209   1.043       .  S
N1206      H1210   1.046       .  S
C1211      C1212   1.412       .  A
C1211      C1216   1.409       .  A
C1211      H1218   1.083       .  S
C1212      C1213   1.416       .  A
C1213      C1214   1.421       .  A
C1213      N1220   1.437   1_554  S
C1214      C1215   1.415       .  A
C1214      H1219   1.083       .  S
C1215      C1216   1.413       .  A
C1216      N1217   1.432       .  S
N1217      H1221   1.046       .  S
N1217      H1222   1.046       .  S
N1220      H1223   1.046       .  S
N1220      H1224   1.045       .  S
C1225      C1226   1.405       .  A
C1225      C1230   1.392       .  A
C1225      H1232   1.085       .  S
C1226      C1227   1.404       .  A
C1227      C1228   1.400       .  A
C1227      N1234   1.432       .  S
C1228      C1229   1.403       .  A
C1228      H1233   1.084   1_655  S
C1229      C1230   1.400       .  A
C1230      N1231   1.437       .  S
N1231      H1235   1.046       .  S
N1231      H1236   1.044   1_655  S
N1234      H1237   1.043       .  S
N1234      H1238   1.045       .  S
C1239      C1240   1.401       .  A
C1239      C1244   1.391       .  A
C1239      H1246   1.083       .  S
C1240      C1241   1.402       .  A
C1241      C1242   1.400       .  A
C1241      N1248   1.437       .  S
C1242      C1243   1.404       .  A
C1242      H1247   1.084       .  S
C1243      C1244   1.409       .  A
C1244      N1245   1.434       .  S
N1245      H1249   1.044       .  S
N1245      H1250   1.046       .  S
N1248      H1251   1.045       .  S
N1248      H1252   1.046       .  S
C1253      C1254   1.415       .  A
C1253      C1258   1.417       .  A
C1253      H1260   1.083       .  S
C1254      C1255   1.415       .  A
C1255      C1256   1.412       .  A
C1255      N1262   1.438       .  S
C1256      C1257   1.409       .  A
C1256      H1261   1.084       .  S
C1257      C1258   1.409       .  A
C1258      N1259   1.437       .  S
N1259      H1263   1.046       .  S
N1259      H1264   1.046       .  S
N1262      H1265   1.046       .  S
N1262      H1266   1.045       .  S
C1267      C1268   1.413       .  A
C1267      C1272   1.415   1_655  A
C1267      H1274   1.084       .  S
C1268      C1269   1.421       .  A
C1269      C1270   1.419   1_655  A
C1269      N1276   1.427       .  S
C1270      C1271   1.414       .  A
C1270      H1275   1.083       .  S
C1271      C1272   1.417       .  A
C1272      N1273   1.432       .  S
N1273      H1277   1.046       .  S
N1273      H1278   1.046       .  S
N1276      H1279   1.036       .  S
N1276      H1280   1.048       .  S
C1281      C1282   1.400       .  A
C1281      C1286   1.404       .  A
C1281      H1288   1.084       .  S
C1282      C1283   1.421       .  A
C1283      C1284   1.420       .  A
C1283      N1290   1.431       .  S
C1284      C1285   1.406       .  A
C1284      H1289   1.083       .  S
C1285      C1286   1.421       .  A
C1286      N1287   1.433       .  S
N1287      H1291   1.046       .  S
N1287      H1292   1.045   1_556  S
N1290      H1293   1.046       .  S
N1290      H1294   1.045       .  S
C1295      C1296   1.414   1_554  A
C1295      C1300   1.420   1_655  A
C1295      H1302   1.083       .  S
C1296      C1297   1.415   1_655  A
C1297      C1298   1.408   1_556  A
C1297      N1304   1.433       .  S
C1298      C1299   1.410       .  A
C1298      H1303   1.084       .  S
C1299      C1300   1.419       .  A
C1300      N1301   1.429       .  S
N1301      H1305   1.045       .  S
N1301      H1306   1.042   1_455  S
N1304      H1307   1.046       .  S
N1304      H1308   1.046   1_455  S
C1309      C1310   1.398       .  A
C1309      C1314   1.404       .  A
C1309      H1316   1.084       .  S
C1310      C1311   1.412       .  A
C1311      C1312   1.407       .  A
C1311      N1318   1.432       .  S
C1312      C1313   1.399       .  A
C1312      H1317   1.084       .  S
C1313      C1314   1.414       .  A
C1314      N1315   1.433   1_556  S
N1315      H1319   1.045       .  S
N1315      H1320   1.046       .  S
N1318      H1321   1.045       .  S
N1318      H1322   1.046       .  S
C1323      C1324   1.404       .  A
C1323      C1328   1.409       .  A
C1323      H1330   1.084       .  S
C1324      C1325   1.409       .  A
C1325      C1326   1.396       .  A
C1325      N1332   1.433       .  S
C1326      C1327   1.404       .  A
C1326      H1331   1.084       .  S
C1327      C1328   1.422       .  A
C1328      N1329   1.433       .  S
N1329      H1333   1.042       .  S
N1329      H1334   1.046       .  S
N1332      H1335   1.045       .  S
N1332      H1336   1.046       .  S
C1337      C1338   1.405       .  A
C1337      C1342   1.399       .  A
C1337      H1344   1.084       .  S
C1338      C1339   1.420       .  A
C1339      C1340   1.419       .  A
C1339      N1346   1.431       .  S
C1340      C1341   1.410       .  A
C1340      H1345   1.083       .  S
C1341      C1342   1.420       .  A
C1342      N1343   1.433       .  S
N1343      H1347   1.038       .  S
N1343      H1348   1.043       .  S
N1346      H1349   1.046       .  S
N1346      H1350   1.045       .  S
C1351      C1352   1.404       .  A
C1351      C1356   1.411       .  A
C1351      H1358   1.083       .  S
C1352      C1353   1.413       .  A
C1353      C1354   1.390       .  A
C1353      N1360   1.434       .  S
C1354      C1355   1.397       .  A
C1354      H1359   1.085       .  S
C1355      C1356   1.415       .  A
C1356      N1357   1.436       .  S
N1357      H1361   1.045       .  S
N1357      H1362   1.046       .  S
N1360      H1363   1.046       .  S
N1360      H1364   1.046       .  S
C1365      C1366   1.408       .  A
C1365      C1370   1.413       .  A
C1365      H1372   1.084       .  S
C1366      C1367   1.408       .  A
C1367      C1368   1.415       .  A
C1367      N1374   1.437       .  S
C1368      C1369   1.415       .  A
C1368      H1373   1.083       .  S
C1369      C1370   1.415       .  A
C1370      N1371   1.437       .  S
N1371      H1375   1.046       .  S
N1371      H1376   1.046       .  S
N1374      H1377   1.045       .  S
N1374      H1378   1.045       .  S
C1379      C1380   1.407       .  A
C1379      C1384   1.418   1_554  A
C1379      H1386   1.083       .  S
C1380      C1381   1.419       .  A
C1381      C1382   1.414       .  A
C1381      N1388   1.432       .  S
C1382      C1383   1.408   1_554  A
C1382      H1387   1.083       .  S
C1383      C1384   1.423       .  A
C1384      N1385   1.437       .  S
N1385      H1389   1.045       .  S
N1385      H1390   1.046       .  S
N1388      H1391   1.043       .  S
N1388      H1392   1.046       .  S
C1393      C1394   1.398       .  A
C1393      C1398   1.389       .  A
C1393      H1400   1.084       .  S
C1394      C1395   1.403       .  A
C1395      C1396   1.398       .  A
C1395      N1402   1.437       .  S
C1396      C1397   1.401       .  A
C1396      H1401   1.084       .  S
C1397      C1398   1.410       .  A
C1398      N1399   1.434       .  S
N1399      H1403   1.044       .  S
N1399      H1404   1.045       .  S
N1402      H1405   1.045       .  S
N1402      H1406   1.045       .  S
C1407      C1408   1.400       .  A
C1407      C1412   1.395       .  A
C1407      H1414   1.085       .  S
C1408      C1409   1.402       .  A
C1409      C1410   1.387       .  A
C1409      N1416   1.433       .  S
C1410      C1411   1.406       .  A
C1410      H1415   1.084       .  S
C1411      C1412   1.406       .  A
C1412      N1413   1.433       .  S
N1413      H1417   1.045       .  S
N1413      H1418   1.046       .  S
N1416      H1419   1.046       .  S
N1416      H1420   1.045       .  S
C1421      C1422   1.404       .  A
C1421      C1426   1.395       .  A
C1421      H1428   1.084       .  S
C1422      C1423   1.403       .  A
C1423      C1424   1.387       .  A
C1423      N1430   1.432       .  S
C1424      C1425   1.400       .  A
C1424      H1429   1.085       .  S
C1425      C1426   1.406       .  A
C1426      N1427   1.434       .  S
N1427      H1431   1.045       .  S
N1427      H1432   1.046       .  S
N1430      H1433   1.046       .  S
N1430      H1434   1.045       .  S
C1435      C1436   1.404       .  A
C1435      C1440   1.418       .  A
C1435      H1442   1.083       .  S
C1436      C1437   1.429       .  A
C1437      C1438   1.402       .  A
C1437      N1444   1.431       .  S
C1438      C1439   1.400       .  A
C1438      H1443   1.084       .  S
C1439      C1440   1.422       .  A
C1440      N1441   1.431       .  S
N1441      H1445   1.045       .  S
N1441      H1446   1.046       .  S
N1444      H1447   1.044       .  S
N1444      H1448   1.043       .  S
C1449      C1450   1.411   1_455  A
C1449      C1454   1.414       .  A
C1449      H1456   1.083       .  S
C1450      C1451   1.415   1_655  A
C1451      C1452   1.416       .  A
C1451      N1458   1.437   1_455  S
C1452      C1453   1.413       .  A
C1452      H1457   1.083       .  S
C1453      C1454   1.415       .  A
C1454      N1455   1.438       .  S
N1455      H1459   1.046       .  S
N1455      H1460   1.046       .  S
N1458      H1461   1.045       .  S
N1458      H1462   1.046       .  S
C1463      C1464   1.403       .  A
C1463      C1468   1.410       .  A
C1463      H1470   1.084       .  S
C1464      C1465   1.431       .  A
C1465      C1466   1.401       .  A
C1465      N1472   1.433       .  S
C1466      C1467   1.396       .  A
C1466      H1471   1.085       .  S
C1467      C1468   1.415       .  A
C1468      N1469   1.432       .  S
N1469      H1473   1.046       .  S
N1469      H1474   1.046       .  S
N1472      H1475   1.045       .  S
N1472      H1476   1.045       .  S
C1477      C1478   1.414   1_554  A
C1477      C1482   1.417       .  A
C1477      H1484   1.083   1_554  S
C1478      C1479   1.416       .  A
C1479      C1480   1.417   1_556  A
C1479      N1486   1.437       .  S
C1480      C1481   1.413       .  A
C1480      H1485   1.083       .  S
C1481      C1482   1.413       .  A
C1482      N1483   1.437       .  S
N1483      H1487   1.046       .  S
N1483      H1488   1.045       .  S
N1486      H1489   1.046       .  S
N1486      H1490   1.046       .  S
C1491      C1492   1.397       .  A
C1491      C1496   1.402       .  A
C1491      H1498   1.084       .  S
C1492      C1493   1.427       .  A
C1493      C1494   1.408       .  A
C1493      N1500   1.432       .  S
C1494      C1495   1.401       .  A
C1494      H1499   1.084       .  S
C1495      C1496   1.422       .  A
C1496      N1497   1.439       .  S
N1497      H1501   1.046       .  S
N1497      H1502   1.046       .  S
N1500      H1503   1.046       .  S
N1500      H1504   1.041       .  S
C1505      C1506   1.413       .  A
C1505      C1510   1.419   1_556  A
C1505      H1512   1.084   1_455  S
C1506      C1507   1.407       .  A
C1507      C1508   1.415       .  A
C1507      N1514   1.427       .  S
C1508      C1509   1.414   1_556  A
C1508      H1513   1.083   1_556  S
C1509      C1510   1.418       .  A
C1510      N1511   1.437       .  S
N1511      H1515   1.045   1_455  S
N1511      H1516   1.046   1_455  S
N1514      H1517   1.045       .  S
N1514      H1518   1.046       .  S
C1519      C1520   1.395       .  A
C1519      C1524   1.399       .  A
C1519      H1526   1.082       .  S
C1520      C1521   1.412       .  A
C1521      C1522   1.400       .  A
C1521      N1528   1.433       .  S
C1522      C1523   1.398       .  A
C1522      H1527   1.084       .  S
C1523      C1524   1.416       .  A
C1524      N1525   1.436       .  S
N1525      H1529   1.046       .  S
N1525      H1530   1.038       .  S
N1528      H1531   1.046       .  S
N1528      H1532   1.045       .  S
C1533      C1534   1.407       .  A
C1533      C1538   1.406       .  A
C1533      H1540   1.084       .  S
C1534      C1535   1.420       .  A
C1535      C1536   1.429   1_565  A
C1535      N1542   1.431   1_565  S
C1536      C1537   1.412   1_545  A
C1536      H1541   1.083       .  S
C1537      C1538   1.419       .  A
C1538      N1539   1.434       .  S
N1539      H1543   1.046       .  S
N1539      H1544   1.046       .  S
N1542      H1545   1.046       .  S
N1542      H1546   1.045       .  S
C1547      C1548   1.399       .  A
C1547      C1552   1.401       .  A
C1547      H1554   1.084       .  S
C1548      C1549   1.401       .  A
C1549      C1550   1.385       .  A
C1549      N1556   1.432       .  S
C1550      C1551   1.397       .  A
C1550      H1555   1.081       .  S
C1551      C1552   1.407       .  A
C1552      N1553   1.436       .  S
N1553      H1557   1.046       .  S
N1553      H1558   1.043   1_565  S
N1556      H1559   1.046       .  S
N1556      H1560   1.046       .  S
C1561      C1562   1.409       .  A
C1561      C1566   1.409       .  A
C1561      H1568   1.084       .  S
C1562      C1563   1.413       .  A
C1563      C1564   1.421       .  A
C1563      N1570   1.436       .  S
C1564      C1565   1.411       .  A
C1564      H1569   1.083       .  S
C1565      C1566   1.411       .  A
C1566      N1567   1.438       .  S
N1567      H1571   1.046       .  S
N1567      H1572   1.045       .  S
N1570      H1573   1.045       .  S
N1570      H1574   1.045   1_455  S
C1575      C1576   1.403       .  A
C1575      C1580   1.400       .  A
C1575      H1582   1.085       .  S
C1576      C1577   1.410       .  A
C1577      C1578   1.415       .  A
C1577      N1584   1.437       .  S
C1578      C1579   1.412       .  A
C1578      H1583   1.082       .  S
C1579      C1580   1.414       .  A
C1580      N1581   1.433       .  S
N1581      H1585   1.046       .  S
N1581      H1586   1.046       .  S
N1584      H1587   1.045       .  S
N1584      H1588   1.046       .  S
C1589      C1590   1.400       .  A
C1589      C1594   1.387       .  A
C1589      H1596   1.085       .  S
C1590      C1591   1.413       .  A
C1591      C1592   1.395       .  A
C1591      N1598   1.438       .  S
C1592      C1593   1.398       .  A
C1592      H1597   1.084       .  S
C1593      C1594   1.405       .  A
C1594      N1595   1.434       .  S
N1595      H1599   1.046       .  S
N1595      H1600   1.046       .  S
N1598      H1601   1.046   1_565  S
N1598      H1602   1.046       .  S
C1603      C1604   1.404       .  A
C1603      C1608   1.400       .  A
C1603      H1610   1.085       .  S
C1604      C1605   1.405       .  A
C1605      C1606   1.393       .  A
C1605      N1612   1.437       .  S
C1606      C1607   1.407       .  A
C1606      H1611   1.085       .  S
C1607      C1608   1.404       .  A
C1608      N1609   1.432       .  S
N1609      H1613   1.046       .  S
N1609      H1614   1.046       .  S
N1612      H1615   1.045       .  S
N1612      H1616   1.046       .  S
C1617      C1618   1.414       .  A
C1617      C1622   1.411       .  A
C1617      H1624   1.084       .  S
C1618      C1619   1.406       .  A
C1619      C1620   1.411       .  A
C1619      N1626   1.432       .  S
C1620      C1621   1.416       .  A
C1620      H1625   1.084       .  S
C1621      C1622   1.409       .  A
C1622      N1623   1.437       .  S
N1623      H1627   1.045       .  S
N1623      H1628   1.046       .  S
N1626      H1629   1.046       .  S
N1626      H1630   1.045       .  S
C1631      C1632   1.406       .  A
C1631      C1636   1.415   1_565  A
C1631      H1638   1.082       .  S
C1632      C1633   1.422   1_565  A
C1633      C1634   1.407       .  A
C1633      N1640   1.433       .  S
C1634      C1635   1.402       .  A
C1634      H1639   1.084       .  S
C1635      C1636   1.414       .  A
C1636      N1637   1.432       .  S
N1637      H1641   1.046       .  S
N1637      H1642   1.045       .  S
N1640      H1643   1.046       .  S
N1640      H1644   1.043       .  S
C1645      C1646   1.402       .  A
C1645      C1650   1.399       .  A
C1645      H1652   1.084       .  S
C1646      C1647   1.403       .  A
C1647      C1648   1.401       .  A
C1647      N1654   1.432       .  S
C1648      C1649   1.403       .  A
C1648      H1653   1.085       .  S
C1649      C1650   1.405       .  A
C1650      N1651   1.433       .  S
N1651      H1655   1.045       .  S
N1651      H1656   1.046       .  S
N1654      H1657   1.046       .  S
N1654      H1658   1.046       .  S
C1659      C1660   1.406       .  A
C1659      C1664   1.402       .  A
C1659      H1666   1.082       .  S
C1660      C1661   1.415       .  A
C1661      C1662   1.398       .  A
C1661      N1668   1.434       .  S
C1662      C1663   1.400       .  A
C1662      H1667   1.085       .  S
C1663      C1664   1.406       .  A
C1664      N1665   1.432       .  S
N1665      H1669   1.046       .  S
N1665      H1670   1.045       .  S
N1668      H1671   1.046       .  S
N1668      H1672   1.045       .  S
C1673      C1674   1.406       .  A
C1673      C1678   1.412       .  A
C1673      H1680   1.083       .  S
C1674      C1675   1.426   1_565  A
C1675      C1676   1.428       .  A
C1675      N1682   1.437       .  S
C1676      C1677   1.410   1_545  A
C1676      H1681   1.083       .  S
C1677      C1678   1.424       .  A
C1678      N1679   1.433       .  S
N1679      H1683   1.046       .  S
N1679      H1684   1.046       .  S
N1682      H1685   1.046       .  S
N1682      H1686   1.046       .  S
C1687      C1688   1.398       .  A
C1687      C1692   1.388       .  A
C1687      H1694   1.085       .  S
C1688      C1689   1.411       .  A
C1689      C1690   1.409       .  A
C1689      N1696   1.434       .  S
C1690      C1691   1.402       .  A
C1690      H1695   1.083       .  S
C1691      C1692   1.407       .  A
C1692      N1693   1.434       .  S
N1693      H1697   1.046       .  S
N1693      H1698   1.046       .  S
N1696      H1699   1.045       .  S
N1696      H1700   1.046       .  S
C1701      C1702   1.408       .  A
C1701      C1706   1.420       .  A
C1701      H1708   1.083       .  S
C1702      C1703   1.415       .  A
C1703      C1704   1.402       .  A
C1703      N1710   1.432       .  S
C1704      C1705   1.405       .  A
C1704      H1709   1.084       .  S
C1705      C1706   1.414       .  A
C1706      N1707   1.431       .  S
N1707      H1711   1.046       .  S
N1707      H1712   1.045       .  S
N1710      H1713   1.046       .  S
N1710      H1714   1.043       .  S
C1715      C1716   1.414   1_455  A
C1715      C1720   1.416       .  A
C1715      H1722   1.083       .  S
C1716      C1717   1.415       .  A
C1717      C1718   1.420   1_655  A
C1717      N1724   1.437       .  S
C1718      C1719   1.415       .  A
C1718      H1723   1.083       .  S
C1719      C1720   1.412       .  A
C1720      N1721   1.433       .  S
N1721      H1725   1.045       .  S
N1721      H1726   1.045       .  S
N1724      H1727   1.046       .  S
N1724      H1728   1.045       .  S
C1729      C1730   1.401       .  A
C1729      C1734   1.400       .  A
C1729      H1736   1.081       .  S
C1730      C1731   1.416       .  A
C1731      C1732   1.401       .  A
C1731      N1738   1.431       .  S
C1732      C1733   1.400       .  A
C1732      H1737   1.084       .  S
C1733      C1734   1.409       .  A
C1734      N1735   1.433   1_655  S
N1735      H1739   1.045       .  S
N1735      H1740   1.044       .  S
N1738      H1741   1.044       .  S
N1738      H1742   1.045       .  S
C1743      C1744   1.404       .  A
C1743      C1748   1.403       .  A
C1743      H1750   1.084       .  S
C1744      C1745   1.408       .  A
C1745      C1746   1.404       .  A
C1745      N1752   1.438       .  S
C1746      C1747   1.402       .  A
C1746      H1751   1.084       .  S
C1747      C1748   1.406       .  A
C1748      N1749   1.437       .  S
N1749      H1753   1.046       .  S
N1749      H1754   1.045       .  S
N1752      H1755   1.045       .  S
N1752      H1756   1.046       .  S
C1757      C1758   1.400       .  A
C1757      C1762   1.418       .  A
C1757      H1764   1.083   1_455  S
C1758      C1759   1.417       .  A
C1759      C1760   1.411       .  A
C1759      N1766   1.438       .  S
C1760      C1761   1.404       .  A
C1760      H1765   1.083       .  S
C1761      C1762   1.426       .  A
C1762      N1763   1.437       .  S
N1763      H1767   1.046       .  S
N1763      H1768   1.045   1_455  S
N1766      H1769   1.046       .  S
N1766      H1770   1.046       .  S
C1771      C1772   1.398       .  A
C1771      C1776   1.409       .  A
C1771      H1778   1.084       .  S
C1772      C1773   1.408       .  A
C1773      C1774   1.396       .  A
C1773      N1780   1.433   1_655  S
C1774      C1775   1.399       .  A
C1774      H1779   1.084       .  S
C1775      C1776   1.416       .  A
C1776      N1777   1.435       .  S
N1777      H1781   1.046       .  S
N1777      H1782   1.045       .  S
N1780      H1783   1.044       .  S
N1780      H1784   1.045       .  S
C1785      C1786   1.415       .  A
C1785      C1790   1.411       .  A
C1785      H1792   1.083       .  S
C1786      C1787   1.412       .  A
C1787      C1788   1.416       .  A
C1787      N1794   1.437       .  S
C1788      C1789   1.415       .  A
C1788      H1793   1.083       .  S
C1789      C1790   1.412       .  A
C1790      N1791   1.438       .  S
N1791      H1795   1.046       .  S
N1791      H1796   1.045       .  S
N1794      H1797   1.046       .  S
N1794      H1798   1.046       .  S
C1799      C1800   1.401       .  A
C1799      C1804   1.406   1_455  A
C1799      H1806   1.084       .  S
C1800      C1801   1.419       .  A
C1801      C1802   1.412       .  A
C1801      N1808   1.432       .  S
C1802      C1803   1.407   1_455  A
C1802      H1807   1.084       .  S
C1803      C1804   1.423       .  A
C1804      N1805   1.439       .  S
N1805      H1809   1.046       .  S
N1805      H1810   1.045       .  S
N1808      H1811   1.045       .  S
N1808      H1812   1.046       .  S
C1813      C1814   1.415       .  A
C1813      C1818   1.409       .  A
C1813      H1820   1.083       .  S
C1814      C1815   1.414       .  A
C1815      C1816   1.422       .  A
C1815      N1822   1.435   1_556  S
C1816      C1817   1.415       .  A
C1816      H1821   1.083       .  S
C1817      C1818   1.409       .  A
C1818      N1819   1.432       .  S
N1819      H1823   1.046       .  S
N1819      H1824   1.045       .  S
N1822      H1825   1.045       .  S
N1822      H1826   1.046       .  S
C1827      C1828   1.403       .  A
C1827      C1832   1.394       .  A
C1827      H1834   1.084       .  S
C1828      C1829   1.410       .  A
C1829      C1830   1.394       .  A
C1829      N1836   1.434       .  S
C1830      C1831   1.396       .  A
C1830      H1835   1.085       .  S
C1831      C1832   1.402       .  A
C1832      N1833   1.438       .  S
N1833      H1837   1.045       .  S
N1833      H1838   1.046       .  S
N1836      H1839   1.045       .  S
N1836      H1840   1.046       .  S
C1841      C1842   1.411       .  A
C1841      C1846   1.392       .  A
C1841      H1848   1.083       .  S
C1842      C1843   1.415       .  A
C1843      C1844   1.412       .  A
C1843      N1850   1.437       .  S
C1844      C1845   1.405       .  A
C1844      H1849   1.084       .  S
C1845      C1846   1.401       .  A
C1846      N1847   1.434       .  S
N1847      H1851   1.045       .  S
N1847      H1852   1.046       .  S
N1850      H1853   1.045       .  S
N1850      H1854   1.046       .  S
C1855      C1856   1.403       .  A
C1855      C1860   1.392       .  A
C1855      H1862   1.084       .  S
C1856      C1857   1.417       .  A
C1857      C1858   1.391       .  A
C1857      N1864   1.434       .  S
C1858      C1859   1.395       .  A
C1858      H1863   1.084       .  S
C1859      C1860   1.400       .  A
C1860      N1861   1.437       .  S
N1861      H1865   1.046       .  S
N1861      H1866   1.045       .  S
N1864      H1867   1.046   1_556  S
N1864      H1868   1.043       .  S
C1869      C1870   1.403       .  A
C1869      C1874   1.390       .  A
C1869      H1876   1.085       .  S
C1870      C1871   1.406       .  A
C1871      C1872   1.398       .  A
C1871      N1878   1.432       .  S
C1872      C1873   1.401       .  A
C1872      H1877   1.084       .  S
C1873      C1874   1.398       .  A
C1874      N1875   1.429       .  S
N1875      H1879   1.046       .  S
N1875      H1880   1.045       .  S
N1878      H1881   1.046       .  S
N1878      H1882   1.046       .  S
C1883      C1884   1.412       .  A
C1883      C1888   1.415       .  A
C1883      H1890   1.083       .  S
C1884      C1885   1.408       .  A
C1885      C1886   1.403       .  A
C1885      N1892   1.432       .  S
C1886      C1887   1.418       .  A
C1886      H1891   1.084       .  S
C1887      C1888   1.407       .  A
C1888      N1889   1.429       .  S
N1889      H1893   1.044       .  S
N1889      H1894   1.045       .  S
N1892      H1895   1.046       .  S
N1892      H1896   1.044       .  S
C1897      C1898   1.407       .  A
C1897      C1902   1.409       .  A
C1897      H1904   1.083       .  S
C1898      C1899   1.416       .  A
C1899      C1900   1.419   1_556  A
C1899      N1906   1.432       .  S
C1900      C1901   1.413       .  A
C1900      H1905   1.083       .  S
C1901      C1902   1.428   1_554  A
C1902      N1903   1.433       .  S
N1903      H1907   1.045   1_556  S
N1903      H1908   1.045       .  S
N1906      H1909   1.045       .  S
N1906      H1910   1.046   1_556  S
C1911      C1912   1.406       .  A
C1911      C1916   1.403       .  A
C1911      H1918   1.083       .  S
C1912      C1913   1.404       .  A
C1913      C1914   1.400       .  A
C1913      N1920   1.438       .  S
C1914      C1915   1.403       .  A
C1914      H1919   1.082       .  S
C1915      C1916   1.404       .  A
C1916      N1917   1.438       .  S
N1917      H1921   1.046       .  S
N1917      H1922   1.045       .  S
N1920      H1923   1.045       .  S
N1920      H1924   1.046       .  S
C1925      C1926   1.404       .  A
C1925      C1930   1.414       .  A
C1925      H1932   1.084       .  S
C1926      C1927   1.406       .  A
C1927      C1928   1.394       .  A
C1927      N1934   1.433       .  S
C1928      C1929   1.404       .  A
C1928      H1933   1.084       .  S
C1929      C1930   1.416       .  A
C1930      N1931   1.438       .  S
N1931      H1935   1.046       .  S
N1931      H1936   1.041       .  S
N1934      H1937   1.046       .  S
N1934      H1938   1.045       .  S
C1939      C1940   1.408       .  A
C1939      C1944   1.421       .  A
C1939      H1946   1.083       .  S
C1940      C1941   1.420       .  A
C1941      C1942   1.415       .  A
C1941      N1948   1.439       .  S
C1942      C1943   1.403       .  A
C1942      H1947   1.082       .  S
C1943      C1944   1.415       .  A
C1944      N1945   1.437       .  S
N1945      H1949   1.045       .  S
N1945      H1950   1.046       .  S
N1948      H1951   1.043       .  S
N1948      H1952   1.045       .  S
C1953      C1954   1.405       .  A
C1953      C1958   1.400       .  A
C1953      H1960   1.083       .  S
C1954      C1955   1.407       .  A
C1955      C1956   1.395       .  A
C1955      N1962   1.433       .  S
C1956      C1957   1.406       .  A
C1956      H1961   1.084       .  S
C1957      C1958   1.415       .  A
C1958      N1959   1.430       .  S
N1959      H1963   1.047       .  S
N1959      H1964   1.040       .  S
N1962      H1965   1.046       .  S
N1962      H1966   1.046       .  S
C1967      C1968   1.411       .  A
C1967      C1972   1.416       .  A
C1967      H1974   1.083       .  S
C1968      C1969   1.402       .  A
C1969      C1970   1.408       .  A
C1969      N1976   1.432       .  S
C1970      C1971   1.416       .  A
C1970      H1975   1.084       .  S
C1971      C1972   1.409       .  A
C1972      N1973   1.435       .  S
N1973      H1977   1.046       .  S
N1973      H1978   1.045       .  S
N1976      H1979   1.045       .  S
N1976      H1980   1.046       .  S
C1981      C1982   1.411   1_554  A
C1981      C1986   1.419       .  A
C1981      H1988   1.083   1_545  S
C1982      C1983   1.421       .  A
C1983      C1984   1.421       .  A
C1983      N1990   1.438       .  S
C1984      C1985   1.411   1_556  A
C1984      H1989   1.082       .  S
C1985      C1986   1.415       .  A
C1986      N1987   1.437       .  S
N1987      H1991   1.045       .  S
N1987      H1992   1.046       .  S
N1990      H1993   1.046       .  S
N1990      H1994   1.046       .  S
C1995      C1996   1.412       .  A
C1995      C2000   1.415       .  A
C1995      H2002   1.082       .  S
C1996      C1997   1.403       .  A
C1997      C1998   1.409       .  A
C1997      N2004   1.437       .  S
C1998      C1999   1.415       .  A
C1998      H2003   1.084       .  S
C1999      C2000   1.409       .  A
C2000      N2001   1.437       .  S
N2001      H2005   1.046       .  S
N2001      H2006   1.046       .  S
N2004      H2007   1.046       .  S
N2004      H2008   1.045       .  S
C2009      C2010   1.414       .  A
C2009      C2014   1.415       .  A
C2009      H2016   1.084       .  S
C2010      C2011   1.414       .  A
C2011      C2012   1.417       .  A
C2011      N2018   1.437       .  S
C2012      C2013   1.415       .  A
C2012      H2017   1.083       .  S
C2013      C2014   1.418       .  A
C2014      N2015   1.434       .  S
N2015      H2019   1.043       .  S
N2015      H2020   1.045   1_545  S
N2018      H2021   1.045       .  S
N2018      H2022   1.046       .  S
C2023      C2024   1.399       .  A
C2023      C2028   1.400       .  A
C2023      H2030   1.085       .  S
C2024      C2025   1.415       .  A
C2025      C2026   1.406       .  A
C2025      N2032   1.429       .  S
C2026      C2027   1.407       .  A
C2026      H2031   1.083       .  S
C2027      C2028   1.419       .  A
C2028      N2029   1.433       .  S
N2029      H2033   1.046       .  S
N2029      H2034   1.046       .  S
N2032      H2035   1.045       .  S
N2032      H2036   1.043       .  S
C2037      C2038   1.414       .  A
C2037      C2042   1.430       .  A
C2037      H2044   1.083       .  S
C2038      C2039   1.422       .  A
C2039      C2040   1.397       .  A
C2039      N2046   1.434       .  S
C2040      C2041   1.406       .  A
C2040      H2045   1.083       .  S
C2041      C2042   1.419       .  A
C2042      N2043   1.436       .  S
N2043      H2047   1.046       .  S
N2043      H2048   1.046       .  S
N2046      H2049   1.044       .  S
N2046      H2050   1.045       .  S
C2051      C2052   1.402   1_655  A
C2051      C2056   1.399       .  A
C2051      H2058   1.085       .  S
C2052      C2053   1.405   1_455  A
C2053      C2054   1.394       .  A
C2053      N2060   1.436   1_655  S
C2054      C2055   1.405       .  A
C2054      H2059   1.084       .  S
C2055      C2056   1.405       .  A
C2056      N2057   1.432       .  S
N2057      H2061   1.046       .  S
N2057      H2062   1.046       .  S
N2060      H2063   1.045       .  S
N2060      H2064   1.046       .  S
C2065      C2066   1.413       .  A
C2065      C2070   1.424       .  A
C2065      H2072   1.083       .  S
C2066      C2067   1.414       .  A
C2067      C2068   1.405       .  A
C2067      N2074   1.430       .  S
C2068      C2069   1.401       .  A
C2068      H2073   1.083       .  S
C2069      C2070   1.413       .  A
C2070      N2071   1.431       .  S
N2071      H2075   1.046       .  S
N2071      H2076   1.045       .  S
N2074      H2077   1.046       .  S
N2074      H2078   1.043   1_655  S
C2079      C2080   1.411       .  A
C2079      C2084   1.392       .  A
C2079      H2086   1.084       .  S
C2080      C2081   1.414       .  A
C2081      C2082   1.411       .  A
C2081      N2088   1.437       .  S
C2082      C2083   1.405       .  A
C2082      H2087   1.082       .  S
C2083      C2084   1.399       .  A
C2084      N2085   1.434       .  S
N2085      H2089   1.046       .  S
N2085      H2090   1.046       .  S
N2088      H2091   1.044       .  S
N2088      H2092   1.046       .  S
C2093      C2094   1.394       .  A
C2093      C2098   1.391       .  A
C2093      H2100   1.084       .  S
C2094      C2095   1.404       .  A
C2095      C2096   1.386       .  A
C2095      N2102   1.433       .  S
C2096      C2097   1.403       .  A
C2096      H2101   1.084       .  S
C2097      C2098   1.411       .  A
C2098      N2099   1.433       .  S
N2099      H2103   1.046       .  S
N2099      H2104   1.046       .  S
N2102      H2105   1.046       .  S
N2102      H2106   1.044       .  S
C2107      C2108   1.395       .  A
C2107      C2112   1.393       .  A
C2107      H2114   1.084       .  S
C2108      C2109   1.405       .  A
C2109      C2110   1.392       .  A
C2109      N2116   1.433       .  S
C2110      C2111   1.397       .  A
C2110      H2115   1.085       .  S
C2111      C2112   1.417       .  A
C2112      N2113   1.434       .  S
N2113      H2117   1.042       .  S
N2113      H2118   1.045       .  S
N2116      H2119   1.046       .  S
N2116      H2120   1.045       .  S
C2121      C2122   1.413       .  A
C2121      C2126   1.415       .  A
C2121      H2128   1.084       .  S
C2122      C2123   1.410       .  A
C2123      C2124   1.419       .  A
C2123      N2130   1.437       .  S
C2124      C2125   1.418       .  A
C2124      H2129   1.083       .  S
C2125      C2126   1.411       .  A
C2126      N2127   1.431       .  S
N2127      H2131   1.045       .  S
N2127      H2132   1.046       .  S
N2130      H2133   1.045       .  S
N2130      H2134   1.046       .  S
C2135      C2136   1.417       .  A
C2135      C2140   1.423       .  A
C2135      H2142   1.083       .  S
C2136      C2137   1.412       .  A
C2137      C2138   1.409       .  A
C2137      N2144   1.432   1_545  S
C2138      C2139   1.412       .  A
C2138      H2143   1.084       .  S
C2139      C2140   1.411       .  A
C2140      N2141   1.436       .  S
N2141      H2145   1.045       .  S
N2141      H2146   1.046       .  S
N2144      H2147   1.046   1_565  S
N2144      H2148   1.045       .  S
C2149      C2150   1.403       .  A
C2149      C2154   1.404   1_565  A
C2149      H2156   1.084       .  S
C2150      C2151   1.411       .  A
C2151      C2152   1.390       .  A
C2151      N2158   1.434       .  S
C2152      C2153   1.401   1_565  A
C2152      H2157   1.084       .  S
C2153      C2154   1.419       .  A
C2154      N2155   1.430       .  S
N2155      H2159   1.046       .  S
N2155      H2160   1.040       .  S
N2158      H2161   1.046       .  S
N2158      H2162   1.046       .  S
C2163      C2164   1.402       .  A
C2163      C2168   1.407       .  A
C2163      H2170   1.083       .  S
C2164      C2165   1.407       .  A
C2165      C2166   1.386       .  A
C2165      N2172   1.440       .  S
C2166      C2167   1.402       .  A
C2166      H2171   1.084       .  S
C2167      C2168   1.411       .  A
C2168      N2169   1.437       .  S
N2169      H2173   1.046       .  S
N2169      H2174   1.046       .  S
N2172      H2175   1.045       .  S
N2172      H2176   1.046       .  S
C2177      C2178   1.417       .  A
C2177      C2182   1.420       .  A
C2177      H2184   1.083       .  S
C2178      C2179   1.416       .  A
C2179      C2180   1.413       .  A
C2179      N2186   1.432       .  S
C2180      C2181   1.414       .  A
C2180      H2185   1.083       .  S
C2181      C2182   1.421       .  A
C2182      N2183   1.430       .  S
N2183      H2187   1.043       .  S
N2183      H2188   1.045       .  S
N2186      H2189   1.045       .  S
N2186      H2190   1.046       .  S
C2191      C2192   1.398   1_565  A
C2191      C2196   1.406       .  A
C2191      H2198   1.084       .  S
C2192      C2193   1.411       .  A
C2193      C2194   1.398   1_545  A
C2193      N2200   1.434       .  S
C2194      C2195   1.397       .  A
C2194      H2199   1.085   1_565  S
C2195      C2196   1.413       .  A
C2196      N2197   1.438       .  S
N2197      H2201   1.046       .  S
N2197      H2202   1.045       .  S
N2200      H2203   1.045       .  S
N2200      H2204   1.046       .  S
C2205      C2206   1.403       .  A
C2205      C2210   1.403       .  A
C2205      H2212   1.084       .  S
C2206      C2207   1.424       .  A
C2207      C2208   1.422       .  A
C2207      N2214   1.437       .  S
C2208      C2209   1.405       .  A
C2208      H2213   1.083       .  S
C2209      C2210   1.419       .  A
C2210      N2211   1.434       .  S
N2211      H2215   1.044       .  S
N2211      H2216   1.046       .  S
N2214      H2217   1.046       .  S
N2214      H2218   1.046       .  S
C2219      C2220   1.419       .  A
C2219      C2224   1.427   1_455  A
C2219      H2226   1.083       .  S
C2220      C2221   1.406       .  A
C2221      C2222   1.401       .  A
C2221      N2228   1.433       .  S
C2222      C2223   1.417   1_455  A
C2222      H2227   1.084   1_455  S
C2223      C2224   1.411       .  A
C2224      N2225   1.435       .  S
N2225      H2229   1.045       .  S
N2225      H2230   1.046   1_545  S
N2228      H2231   1.046       .  S
N2228      H2232   1.046       .  S
C2233      C2234   1.409       .  A
C2233      C2238   1.406       .  A
C2233      H2240   1.084       .  S
C2234      C2235   1.410       .  A
C2235      C2236   1.400       .  A
C2235      N2242   1.433       .  S
C2236      C2237   1.400       .  A
C2236      H2241   1.083   1_455  S
C2237      C2238   1.410       .  A
C2238      N2239   1.432       .  S
N2239      H2243   1.045       .  S
N2239      H2244   1.046       .  S
N2242      H2245   1.042       .  S
N2242      H2246   1.047       .  S
C2247      C2248   1.405       .  A
C2247      C2252   1.398       .  A
C2247      H2254   1.084       .  S
C2248      C2249   1.413       .  A
C2249      C2250   1.402       .  A
C2249      N2256   1.431       .  S
C2250      C2251   1.402       .  A
C2250      H2255   1.084       .  S
C2251      C2252   1.410       .  A
C2252      N2253   1.433       .  S
N2253      H2257   1.046       .  S
N2253      H2258   1.046       .  S
N2256      H2259   1.045       .  S
N2256      H2260   1.046       .  S
C2261      C2262   1.408       .  A
C2261      C2266   1.407       .  A
C2261      H2268   1.085       .  S
C2262      C2263   1.414   1_655  A
C2263      C2264   1.415   1_455  A
C2263      N2270   1.437       .  S
C2264      C2265   1.417       .  A
C2264      H2269   1.083   1_655  S
C2265      C2266   1.412       .  A
C2266      N2267   1.433       .  S
N2267      H2271   1.046       .  S
N2267      H2272   1.046       .  S
N2270      H2273   1.043       .  S
N2270      H2274   1.045       .  S
C2275      C2276   1.405       .  A
C2275      C2280   1.398       .  A
C2275      H2282   1.085       .  S
C2276      C2277   1.409       .  A
C2277      C2278   1.402       .  A
C2277      N2284   1.432       .  S
C2278      C2279   1.408       .  A
C2278      H2283   1.085       .  S
C2279      C2280   1.410       .  A
C2280      N2281   1.438       .  S
N2281      H2285   1.046       .  S
N2281      H2286   1.044       .  S
N2284      H2287   1.045       .  S
N2284      H2288   1.045       .  S
C2289      C2290   1.403       .  A
C2289      C2294   1.417       .  A
C2289      H2296   1.083       .  S
C2290      C2291   1.417       .  A
C2291      C2292   1.402       .  A
C2291      N2298   1.438       .  S
C2292      C2293   1.401       .  A
C2292      H2297   1.084       .  S
C2293      C2294   1.421       .  A
C2294      N2295   1.437       .  S
N2295      H2299   1.046       .  S
N2295      H2300   1.045       .  S
N2298      H2301   1.046       .  S
N2298      H2302   1.046       .  S
C2303      C2304   1.404   1_455  A
C2303      C2308   1.411       .  A
C2303      H2310   1.084       .  S
C2304      C2305   1.421       .  A
C2305      C2306   1.418   1_655  A
C2305      N2312   1.432       .  S
C2306      C2307   1.409       .  A
C2306      H2311   1.082   1_455  S
C2307      C2308   1.416       .  A
C2308      N2309   1.433       .  S
N2309      H2313   1.046       .  S
N2309      H2314   1.046       .  S
N2312      H2315   1.046       .  S
N2312      H2316   1.045       .  S
C2317      C2318   1.409       .  A
C2317      C2322   1.402       .  A
C2317      H2324   1.084       .  S
C2318      C2319   1.404       .  A
C2319      C2320   1.405       .  A
C2319      N2326   1.432       .  S
C2320      C2321   1.408       .  A
C2320      H2325   1.082       .  S
C2321      C2322   1.414       .  A
C2322      N2323   1.433       .  S
N2323      H2327   1.045       .  S
N2323      H2328   1.045       .  S
N2326      H2329   1.045       .  S
N2326      H2330   1.046       .  S
C2331      C2332   1.414       .  A
C2331      C2336   1.409       .  A
C2331      H2338   1.083       .  S
C2332      C2333   1.416       .  A
C2333      C2334   1.422       .  A
C2333      N2340   1.430       .  S
C2334      C2335   1.412       .  A
C2334      H2339   1.084       .  S
C2335      C2336   1.410       .  A
C2336      N2337   1.438       .  S
N2337      H2341   1.046       .  S
N2337      H2342   1.045       .  S
N2340      H2343   1.046       .  S
N2340      H2344   1.045       .  S
C2345      C2346   1.406       .  A
C2345      C2350   1.403       .  A
C2345      H2352   1.081       .  S
C2346      C2347   1.411       .  A
C2347      C2348   1.396       .  A
C2347      N2354   1.434       .  S
C2348      C2349   1.399       .  A
C2348      H2353   1.084       .  S
C2349      C2350   1.411       .  A
C2350      N2351   1.432       .  S
N2351      H2355   1.045       .  S
N2351      H2356   1.045       .  S
N2354      H2357   1.045       .  S
N2354      H2358   1.046       .  S
C2359      C2360   1.398       .  A
C2359      C2364   1.392       .  A
C2359      H2366   1.084       .  S
C2360      C2361   1.404       .  A
C2361      C2362   1.399       .  A
C2361      N2368   1.437       .  S
C2362      C2363   1.400       .  A
C2362      H2367   1.084       .  S
C2363      C2364   1.406       .  A
C2364      N2365   1.438       .  S
N2365      H2369   1.044       .  S
N2365      H2370   1.045       .  S
N2368      H2371   1.045       .  S
N2368      H2372   1.045       .  S
C2373      C2374   1.408       .  A
C2373      C2378   1.404       .  A
C2373      H2380   1.084       .  S
C2374      C2375   1.411       .  A
C2375      C2376   1.423       .  A
C2375      N2382   1.436       .  S
C2376      C2377   1.413       .  A
C2376      H2381   1.083       .  S
C2377      C2378   1.413       .  A
C2378      N2379   1.439       .  S
N2379      H2383   1.046       .  S
N2379      H2384   1.045       .  S
N2382      H2385   1.046       .  S
N2382      H2386   1.045       .  S
C2387      C2388   1.407       .  A
C2387      C2392   1.412       .  A
C2387      H2394   1.083       .  S
C2388      C2389   1.404       .  A
C2389      C2390   1.400       .  A
C2389      N2396   1.433       .  S
C2390      C2391   1.410       .  A
C2390      H2395   1.084       .  S
C2391      C2392   1.412       .  A
C2392      N2393   1.431       .  S
N2393      H2397   1.046       .  S
N2393      H2398   1.045       .  S
N2396      H2399   1.045       .  S
N2396      H2400   1.046       .  S
C2401      C2402   1.399       .  A
C2401      C2406   1.393       .  A
C2401      H2408   1.084       .  S
C2402      C2403   1.411       .  A
C2403      C2404   1.387       .  A
C2403      N2410   1.435       .  S
C2404      C2405   1.400       .  A
C2404      H2409   1.085       .  S
C2405      C2406   1.410       .  A
C2406      N2407   1.439       .  S
N2407      H2411   1.046       .  S
N2407      H2412   1.045       .  S
N2410      H2413   1.046       .  S
N2410      H2414   1.044       .  S
C2415      C2416   1.395       .  A
C2415      C2420   1.396       .  A
C2415      H2422   1.085       .  S
C2416      C2417   1.408       .  A
C2417      C2418   1.393       .  A
C2417      N2424   1.433       .  S
C2418      C2419   1.402       .  A
C2418      H2423   1.084       .  S
C2419      C2420   1.417       .  A
C2420      N2421   1.439       .  S
N2421      H2425   1.046       .  S
N2421      H2426   1.045       .  S
N2424      H2427   1.045       .  S
N2424      H2428   1.044       .  S
C2429      C2430   1.409       .  A
C2429      C2434   1.392       .  A
C2429      H2436   1.084       .  S
C2430      C2431   1.421       .  A
C2431      C2432   1.422       .  A
C2431      N2438   1.431       .  S
C2432      C2433   1.413       .  A
C2432      H2437   1.083       .  S
C2433      C2434   1.412       .  A
C2434      N2435   1.431       .  S
N2435      H2439   1.044       .  S
N2435      H2440   1.045       .  S
N2438      H2441   1.045       .  S
N2438      H2442   1.045       .  S
C2443      C2444   1.403       .  A
C2443      C2448   1.398       .  A
C2443      H2450   1.085       .  S
C2444      C2445   1.411       .  A
C2445      C2446   1.411       .  A
C2445      N2452   1.437       .  S
C2446      C2447   1.408       .  A
C2446      H2451   1.084       .  S
C2447      C2448   1.411       .  A
C2448      N2449   1.434       .  S
N2449      H2453   1.045       .  S
N2449      H2454   1.046       .  S
N2452      H2455   1.045       .  S
N2452      H2456   1.046       .  S
C2457      C2458   1.409       .  A
C2457      C2462   1.418       .  A
C2457      H2464   1.084       .  S
C2458      C2459   1.407       .  A
C2459      C2460   1.403       .  A
C2459      N2466   1.433       .  S
C2460      C2461   1.404       .  A
C2460      H2465   1.082       .  S
C2461      C2462   1.412       .  A
C2462      N2463   1.437       .  S
N2463      H2467   1.046       .  S
N2463      H2468   1.045       .  S
N2466      H2469   1.046       .  S
N2466      H2470   1.045       .  S
C2471      C2472   1.402       .  A
C2471      C2476   1.392       .  A
C2471      H2478   1.085       .  S
C2472      C2473   1.420       .  A
C2473      C2474   1.407       .  A
C2473      N2480   1.437       .  S
C2474      C2475   1.401       .  A
C2474      H2479   1.084       .  S
C2475      C2476   1.404       .  A
C2476      N2477   1.434       .  S
N2477      H2481   1.046       .  S
N2477      H2482   1.046       .  S
N2480      H2483   1.041       .  S
N2480      H2484   1.046       .  S
C2485      C2486   1.416       .  A
C2485      C2490   1.403       .  A
C2485      H2492   1.083       .  S
C2486      C2487   1.408       .  A
C2487      C2488   1.414       .  A
C2487      N2494   1.437       .  S
C2488      C2489   1.418       .  A
C2488      H2493   1.084       .  S
C2489      C2490   1.409       .  A
C2490      N2491   1.430       .  S
N2491      H2495   1.043       .  S
N2491      H2496   1.045       .  S
N2494      H2497   1.046       .  S
N2494      H2498   1.045       .  S
C2499      C2500   1.402       .  A
C2499      C2504   1.408       .  A
C2499      H2506   1.084       .  S
C2500      C2501   1.424       .  A
C2501      C2502   1.413       .  A
C2501      N2508   1.431       .  S
C2502      C2503   1.404       .  A
C2502      H2507   1.083       .  S
C2503      C2504   1.419       .  A
C2504      N2505   1.433       .  S
N2505      H2509   1.046       .  S
N2505      H2510   1.046       .  S
N2508      H2511   1.045       .  S
N2508      H2512   1.044       .  S
C2513      C2514   1.403       .  A
C2513      C2518   1.398       .  A
C2513      H2520   1.085       .  S
C2514      C2515   1.405       .  A
C2515      C2516   1.400       .  A
C2515      N2522   1.432       .  S
C2516      C2517   1.400       .  A
C2516      H2521   1.084       .  S
C2517      C2518   1.412       .  A
C2518      N2519   1.433       .  S
N2519      H2523   1.045       .  S
N2519      H2524   1.044       .  S
N2522      H2525   1.045       .  S
N2522      H2526   1.046       .  S
C2527      C2528   1.398       .  A
C2527      C2532   1.403       .  A
C2527      H2534   1.084       .  S
C2528      C2529   1.415       .  A
C2529      C2530   1.402       .  A
C2529      N2536   1.433       .  S
C2530      C2531   1.396       .  A
C2530      H2535   1.084       .  S
C2531      C2532   1.414       .  A
C2532      N2533   1.432       .  S
N2533      H2537   1.045       .  S
N2533      H2538   1.046       .  S
N2536      H2539   1.037       .  S
N2536      H2540   1.047       .  S
C2541      C2542   1.410       .  A
C2541      C2546   1.408       .  A
C2541      H2548   1.083       .  S
C2542      C2543   1.425       .  A
C2543      C2544   1.429       .  A
C2543      N2550   1.437       .  S
C2544      C2545   1.410       .  A
C2544      H2549   1.083       .  S
C2545      C2546   1.412       .  A
C2546      N2547   1.433       .  S
N2547      H2551   1.045       .  S
N2547      H2552   1.045       .  S
N2550      H2553   1.045       .  S
N2550      H2554   1.046       .  S
C2555      C2556   1.399       .  A
C2555      C2560   1.394       .  A
C2555      H2562   1.084       .  S
C2556      C2557   1.415       .  A
C2557      C2558   1.405       .  A
C2557      N2564   1.430       .  S
C2558      C2559   1.399       .  A
C2558      H2563   1.084       .  S
C2559      C2560   1.411       .  A
C2560      N2561   1.434       .  S
N2561      H2565   1.046       .  S
N2561      H2566   1.046       .  S
N2564      H2567   1.046       .  S
N2564      H2568   1.045       .  S
C2569      C2570   1.401       .  A
C2569      C2574   1.415       .  A
C2569      H2576   1.084       .  S
C2570      C2571   1.417       .  A
C2571      C2572   1.409       .  A
C2571      N2578   1.432       .  S
C2572      C2573   1.403       .  A
C2572      H2577   1.084       .  S
C2573      C2574   1.427       .  A
C2574      N2575   1.438       .  S
N2575      H2579   1.046       .  S
N2575      H2580   1.045       .  S
N2578      H2581   1.044       .  S
N2578      H2582   1.046       .  S
C2583      C2584   1.406       .  A
C2583      C2588   1.417       .  A
C2583      H2590   1.083       .  S
C2584      C2585   1.425       .  A
C2585      C2586   1.417       .  A
C2585      N2592   1.432       .  S
C2586      C2587   1.402       .  A
C2586      H2591   1.082       .  S
C2587      C2588   1.421       .  A
C2588      N2589   1.438       .  S
N2589      H2593   1.045       .  S
N2589      H2594   1.046       .  S
N2592      H2595   1.045       .  S
N2592      H2596   1.046       .  S
C2597      C2598   1.405       .  A
C2597      C2602   1.410       .  A
C2597      H2604   1.083       .  S
C2598      C2599   1.401       .  A
C2599      C2600   1.397       .  A
C2599      N2606   1.438       .  S
C2600      C2601   1.406       .  A
C2600      H2605   1.083       .  S
C2601      C2602   1.410       .  A
C2602      N2603   1.437       .  S
N2603      H2607   1.046       .  S
N2603      H2608   1.046       .  S
N2606      H2609   1.046       .  S
N2606      H2610   1.045       .  S
C2611      C2612   1.409       .  A
C2611      C2616   1.405       .  A
C2611      H2618   1.083       .  S
C2612      C2613   1.411       .  A
C2613      C2614   1.402       .  A
C2613      N2620   1.432       .  S
C2614      C2615   1.402       .  A
C2614      H2619   1.080       .  S
C2615      C2616   1.405       .  A
C2616      N2617   1.437       .  S
N2617      H2621   1.046       .  S
N2617      H2622   1.046       .  S
N2620      H2623   1.046       .  S
N2620      H2624   1.045       .  S
C2625      C2626   1.415       .  A
C2625      C2630   1.428       .  A
C2625      H2632   1.083       .  S
C2626      C2627   1.416       .  A
C2627      C2628   1.396       .  A
C2627      N2634   1.434       .  S
C2628      C2629   1.409       .  A
C2628      H2633   1.083       .  S
C2629      C2630   1.417       .  A
C2630      N2631   1.436       .  S
N2631      H2635   1.046       .  S
N2631      H2636   1.045       .  S
N2634      H2637   1.046       .  S
N2634      H2638   1.046       .  S
C2639      C2640   1.399       .  A
C2639      C2644   1.409       .  A
C2639      H2646   1.084       .  S
C2640      C2641   1.412       .  A
C2641      C2642   1.396       .  A
C2641      N2648   1.434       .  S
C2642      C2643   1.399       .  A
C2642      H2647   1.084       .  S
C2643      C2644   1.420       .  A
C2644      N2645   1.435       .  S
N2645      H2649   1.046       .  S
N2645      H2650   1.045       .  S
N2648      H2651   1.045       .  S
N2648      H2652   1.046       .  S
C2653      C2654   1.406       .  A
C2653      C2658   1.414       .  A
C2653      H2660   1.084       .  S
C2654      C2655   1.406       .  A
C2655      C2656   1.409       .  A
C2655      N2662   1.437       .  S
C2656      C2657   1.409       .  A
C2656      H2661   1.084       .  S
C2657      C2658   1.420       .  A
C2658      N2659   1.438       .  S
N2659      H2663   1.046       .  S
N2659      H2664   1.043       .  S
N2662      H2665   1.045       .  S
N2662      H2666   1.043       .  S
C2667      C2668   1.412       .  A
C2667      C2672   1.411       .  A
C2667      H2674   1.083       .  S
C2668      C2669   1.419       .  A
C2669      C2670   1.413       .  A
C2669      N2676   1.432       .  S
C2670      C2671   1.414       .  A
C2670      H2675   1.083       .  S
C2671      C2672   1.416       .  A
C2672      N2673   1.438       .  S
N2673      H2677   1.046       .  S
N2673      H2678   1.045       .  S
N2676      H2679   1.045       .  S
N2676      H2680   1.045       .  S
C2681      C2682   1.407       .  A
C2681      C2686   1.397       .  A
C2681      H2688   1.084       .  S
C2682      C2683   1.412       .  A
C2683      C2684   1.410       .  A
C2683      N2690   1.436       .  S
C2684      C2685   1.408       .  A
C2684      H2689   1.083       .  S
C2685      C2686   1.408       .  A
C2686      N2687   1.433       .  S
N2687      H2691   1.046       .  S
N2687      H2692   1.046       .  S
N2690      H2693   1.045       .  S
N2690      H2694   1.046       .  S
C2695      C2696   1.407       .  A
C2695      C2700   1.397       .  A
C2695      H2702   1.084       .  S
C2696      C2697   1.415       .  A
C2697      C2698   1.402       .  A
C2697      N2704   1.431       .  S
C2698      C2699   1.402       .  A
C2698      H2703   1.084       .  S
C2699      C2700   1.402       .  A
C2700      N2701   1.433       .  S
N2701      H2705   1.046       .  S
N2701      H2706   1.045       .  S
N2704      H2707   1.045       .  S
N2704      H2708   1.045       .  S
C2709      C2710   1.406       .  A
C2709      C2714   1.401       .  A
C2709      H2716   1.085       .  S
C2710      C2711   1.416       .  A
C2711      C2712   1.421       .  A
C2711      N2718   1.437       .  S
C2712      C2713   1.418       .  A
C2712      H2717   1.082       .  S
C2713      C2714   1.422       .  A
C2714      N2715   1.433       .  S
N2715      H2719   1.044       .  S
N2715      H2720   1.045       .  S
N2718      H2721   1.044       .  S
N2718      H2722   1.046       .  S
C2723      C2724   1.407       .  A
C2723      C2728   1.405       .  A
C2723      H2730   1.083       .  S
C2724      C2725   1.405       .  A
C2725      C2726   1.403       .  A
C2725      N2732   1.438       .  S
C2726      C2727   1.409       .  A
C2726      H2731   1.084       .  S
C2727      C2728   1.407       .  A
C2728      N2729   1.433       .  S
N2729      H2733   1.045       .  S
N2729      H2734   1.046       .  S
N2732      H2735   1.045       .  S
N2732      H2736   1.046       .  S
C2737      C2738   1.399       .  A
C2737      C2742   1.391       .  A
C2737      H2744   1.083       .  S
C2738      C2739   1.414       .  A
C2739      C2740   1.392       .  A
C2739      N2746   1.431       .  S
C2740      C2741   1.400       .  A
C2740      H2745   1.084       .  S
C2741      C2742   1.408       .  A
C2742      N2743   1.434       .  S
N2743      H2747   1.046       .  S
N2743      H2748   1.046       .  S
N2746      H2749   1.045       .  S
N2746      H2750   1.045       .  S
C2751      C2752   1.412       .  A
C2751      C2756   1.433       .  A
C2751      H2758   1.083       .  S
C2752      C2753   1.410       .  A
C2753      C2754   1.408       .  A
C2753      N2760   1.432       .  S
C2754      C2755   1.412       .  A
C2754      H2759   1.083       .  S
C2755      C2756   1.423       .  A
C2756      N2757   1.436       .  S
N2757      H2761   1.045       .  S
N2757      H2762   1.046       .  S
N2760      H2763   1.046       .  S
N2760      H2764   1.045       .  S
C2765      C2766   1.406       .  A
C2765      C2770   1.402       .  A
C2765      H2772   1.083       .  S
C2766      C2767   1.412       .  A
C2767      C2768   1.397       .  A
C2767      N2774   1.439       .  S
C2768      C2769   1.399       .  A
C2768      H2773   1.081       .  S
C2769      C2770   1.411       .  A
C2770      N2771   1.439       .  S
N2771      H2775   1.046       .  S
N2771      H2776   1.044       .  S
N2774      H2777   1.043       .  S
N2774      H2778   1.046       .  S
C2779      C2780   1.406       .  A
C2779      C2784   1.390       .  A
C2779      H2786   1.084       .  S
C2780      C2781   1.410       .  A
C2781      C2782   1.402       .  A
C2781      N2788   1.432       .  S
C2782      C2783   1.402       .  A
C2782      H2787   1.084       .  S
C2783      C2784   1.405       .  A
C2784      N2785   1.433       .  S
N2785      H2789   1.043       .  S
N2785      H2790   1.046       .  S
N2788      H2791   1.046       .  S
N2788      H2792   1.044       .  S
C2793      C2794   1.407       .  A
C2793      C2798   1.404       .  A
C2793      H2800   1.084       .  S
C2794      C2795   1.415       .  A
C2795      C2796   1.427       .  A
C2795      N2802   1.436       .  S
C2796      C2797   1.415       .  A
C2796      H2801   1.083       .  S
C2797      C2798   1.414       .  A
C2798      N2799   1.433       .  S
N2799      H2803   1.046       .  S
N2799      H2804   1.046       .  S
N2802      H2805   1.046       .  S
N2802      H2806   1.045       .  S
C2807      C2808   1.400       .  A
C2807      C2812   1.400       .  A
C2807      H2814   1.084       .  S
C2808      C2809   1.405       .  A
C2809      C2810   1.390       .  A
C2809      N2816   1.434       .  S
C2810      C2811   1.396       .  A
C2810      H2815   1.085       .  S
C2811      C2812   1.406       .  A
C2812      N2813   1.437       .  S
N2813      H2817   1.046       .  S
N2813      H2818   1.045       .  S
N2816      H2819   1.041       .  S
N2816      H2820   1.046       .  S
C2821      C2822   1.399       .  A
C2821      C2826   1.404       .  A
C2821      H2828   1.084       .  S
C2822      C2823   1.419       .  A
C2823      C2824   1.395       .  A
C2823      N2830   1.437       .  S
C2824      C2825   1.394       .  A
C2824      H2829   1.085       .  S
C2825      C2826   1.409       .  A
C2826      N2827   1.436       .  S
N2827      H2831   1.046       .  S
N2827      H2832   1.045       .  S
N2830      H2833   1.042       .  S
N2830      H2834   1.046       .  S
C2835      C2836   1.416       .  A
C2835      C2840   1.421       .  A
C2835      H2842   1.082       .  S
C2836      C2837   1.416       .  A
C2837      C2838   1.403       .  A
C2837      N2844   1.433       .  S
C2838      C2839   1.408       .  A
C2838      H2843   1.084       .  S
C2839      C2840   1.412       .  A
C2840      N2841   1.431       .  S
N2841      H2845   1.046       .  S
N2841      H2846   1.046       .  S
N2844      H2847   1.046       .  S
N2844      H2848   1.046       .  S
C2849      C2850   1.406       .  A
C2849      C2854   1.392       .  A
C2849      H2856   1.084       .  S
C2850      C2851   1.417       .  A
C2851      C2852   1.408       .  A
C2851      N2858   1.430       .  S
C2852      C2853   1.406       .  A
C2852      H2857   1.083       .  S
C2853      C2854   1.406       .  A
C2854      N2855   1.434       .  S
N2855      H2859   1.046       .  S
N2855      H2860   1.046       .  S
N2858      H2861   1.046       .  S
N2858      H2862   1.044       .  S
C2863      C2864   1.397       .  A
C2863      C2868   1.405       .  A
C2863      H2870   1.084       .  S
C2864      C2865   1.426       .  A
C2865      C2866   1.411       .  A
C2865      N2872   1.433       .  S
C2866      C2867   1.403       .  A
C2866      H2871   1.083       .  S
C2867      C2868   1.434       .  A
C2868      N2869   1.432       .  S
N2869      H2873   1.043       .  S
N2869      H2874   1.044       .  S
N2872      H2875   1.043       .  S
N2872      H2876   1.046       .  S
C2877      C2878   1.402       .  A
C2877      C2882   1.410       .  A
C2877      H2884   1.084       .  S
C2878      C2879   1.420       .  A
C2879      C2880   1.414       .  A
C2879      N2886   1.432       .  S
C2880      C2881   1.403       .  A
C2880      H2885   1.084       .  S
C2881      C2882   1.418       .  A
C2882      N2883   1.433       .  S
N2883      H2887   1.045       .  S
N2883      H2888   1.046       .  S
N2886      H2889   1.045       .  S
N2886      H2890   1.045       .  S
C2891      C2892   1.401       .  A
C2891      C2896   1.397       .  A
C2891      H2898   1.079       .  S
C2892      C2893   1.402       .  A
C2893      C2894   1.397       .  A
C2893      N2900   1.433       .  S
C2894      C2895   1.402       .  A
C2894      H2899   1.085       .  S
C2895      C2896   1.402       .  A
C2896      N2897   1.438       .  S
N2897      H2901   1.046       .  S
N2897      H2902   1.045       .  S
N2900      H2903   1.045       .  S
N2900      H2904   1.045       .  S
C2905      C2906   1.399       .  A
C2905      C2910   1.401       .  A
C2905      H2912   1.084       .  S
C2906      C2907   1.415       .  A
C2907      C2908   1.402       .  A
C2907      N2914   1.432       .  S
C2908      C2909   1.399       .  A
C2908      H2913   1.084       .  S
C2909      C2910   1.420       .  A
C2910      N2911   1.430       .  S
N2911      H2915   1.044       .  S
N2911      H2916   1.044       .  S
N2914      H2917   1.045       .  S
N2914      H2918   1.046       .  S
C2919      C2920   1.418       .  A
C2919      C2924   1.433       .  A
C2919      H2926   1.083       .  S
C2920      C2921   1.415       .  A
C2921      C2922   1.403       .  A
C2921      N2928   1.433       .  S
C2922      C2923   1.408       .  A
C2922      H2927   1.084       .  S
C2923      C2924   1.418       .  A
C2924      N2925   1.436       .  S
N2925      H2929   1.046       .  S
N2925      H2930   1.045       .  S
N2928      H2931   1.046       .  S
N2928      H2932   1.045       .  S
C2933      C2934   1.398       .  A
C2933      C2938   1.399       .  A
C2933      H2940   1.084       .  S
C2934      C2935   1.412       .  A
C2935      C2936   1.403       .  A
C2935      N2942   1.430       .  S
C2936      C2937   1.398       .  A
C2936      H2941   1.084       .  S
C2937      C2938   1.413       .  A
C2938      N2939   1.439       .  S
N2939      H2943   1.046       .  S
N2939      H2944   1.045       .  S
N2942      H2945   1.046       .  S
N2942      H2946   1.045       .  S
C2947      C2948   1.413       .  A
C2947      C2952   1.417       .  A
C2947      H2954   1.084       .  S
C2948      C2949   1.402       .  A
C2949      C2950   1.404       .  A
C2949      N2956   1.432       .  S
C2950      C2951   1.416       .  A
C2950      H2955   1.084       .  S
C2951      C2952   1.412       .  A
C2952      N2953   1.436       .  S
N2953      H2957   1.046       .  S
N2953      H2958   1.045       .  S
N2956      H2959   1.046       .  S
N2956      H2960   1.045       .  S
C2961      C2962   1.412       .  A
C2961      C2966   1.420       .  A
C2961      H2968   1.083       .  S
C2962      C2963   1.429       .  A
C2963      C2964   1.409       .  A
C2963      N2970   1.432       .  S
C2964      C2965   1.406       .  A
C2964      H2969   1.083       .  S
C2965      C2966   1.417       .  A
C2966      N2967   1.431       .  S
N2967      H2971   1.045       .  S
N2967      H2972   1.046       .  S
N2970      H2973   1.045       .  S
N2970      H2974   1.045       .  S
C2975      C2976   1.404       .  A
C2975      C2980   1.408       .  A
C2975      H2982   1.084       .  S
C2976      C2977   1.415       .  A
C2977      C2978   1.395       .  A
C2977      N2984   1.434       .  S
C2978      C2979   1.402       .  A
C2978      H2983   1.084       .  S
C2979      C2980   1.413       .  A
C2980      N2981   1.430       .  S
N2981      H2985   1.045       .  S
N2981      H2986   1.046       .  S
N2984      H2987   1.046       .  S
N2984      H2988   1.044       .  S
C2989      C2990   1.410       .  A
C2989      C2994   1.410       .  A
C2989      H2996   1.083       .  S
C2990      C2991   1.423       .  A
C2991      C2992   1.393       .  A
C2991      N2998   1.432       .  S
C2992      C2993   1.401       .  A
C2992      H2997   1.084       .  S
C2993      C2994   1.411       .  A
C2994      N2995   1.432       .  S
N2995      H2999   1.045       .  S
N2995      H3000   1.046       .  S
N2998      H3001   1.045       .  S
N2998      H3002   1.045       .  S
C3003      C3004   1.417       .  A
C3003      C3008   1.423       .  A
C3003      H3010   1.082       .  S
C3004      C3005   1.414       .  A
C3005      C3006   1.408       .  A
C3005      N3012   1.432       .  S
C3006      C3007   1.407       .  A
C3006      H3011   1.084       .  S
C3007      C3008   1.410       .  A
C3008      N3009   1.436       .  S
N3009      H3013   1.046       .  S
N3009      H3014   1.045       .  S
N3012      H3015   1.045       .  S
N3012      H3016   1.046       .  S
C3017      C3018   1.401       .  A
C3017      C3022   1.395       .  A
C3017      H3024   1.085       .  S
C3018      C3019   1.410       .  A
C3019      C3020   1.411       .  A
C3019      N3026   1.435       .  S
C3020      C3021   1.403       .  A
C3020      H3025   1.080       .  S
C3021      C3022   1.405       .  A
C3022      N3023   1.432       .  S
N3023      H3027   1.045       .  S
N3023      H3028   1.045       .  S
N3026      H3029   1.045       .  S
N3026      H3030   1.045       .  S
C3031      C3032   1.406       .  A
C3031      C3036   1.422       .  A
C3031      H3038   1.083       .  S
C3032      C3033   1.426       .  A
C3033      C3034   1.397       .  A
C3033      N3040   1.432       .  S
C3034      C3035   1.400       .  A
C3034      H3039   1.084       .  S
C3035      C3036   1.423       .  A
C3036      N3037   1.437       .  S
N3037      H3041   1.045       .  S
N3037      H3042   1.046       .  S
N3040      H3043   1.046       .  S
N3040      H3044   1.043       .  S
C3045      C3046   1.413       .  A
C3045      C3050   1.424       .  A
C3045      H3052   1.083       .  S
C3046      C3047   1.417       .  A
C3047      C3048   1.416       .  A
C3047      N3054   1.438       .  S
C3048      C3049   1.412       .  A
C3048      H3053   1.083       .  S
C3049      C3050   1.421       .  A
C3050      N3051   1.438       .  S
N3051      H3055   1.045       .  S
N3051      H3056   1.043       .  S
N3054      H3057   1.045       .  S
N3054      H3058   1.046       .  S
C3059      C3060   1.404       .  A
C3059      C3064   1.405       .  A
C3059      H3066   1.080       .  S
C3060      C3061   1.408       .  A
C3061      C3062   1.397       .  A
C3061      N3068   1.439       .  S
C3062      C3063   1.404       .  A
C3062      H3067   1.084       .  S
C3063      C3064   1.413       .  A
C3064      N3065   1.429       .  S
N3065      H3069   1.044       .  S
N3065      H3070   1.045       .  S
N3068      H3071   1.045       .  S
N3068      H3072   1.046       .  S
