geometry optimzed in LAMMPS
_audit_creation_date              2020-11-30 
_audit_creation_method            'lammps2cif' 
_symmetry_space_group_name_H-M    'P1' 
_symmetry_Int_Tables_number       1 
_symmetry_cell_setting            triclinic 
loop_ 
_symmetry_equiv_pos_as_xyz 
  x,y,z 
_cell_length_a                    51.55476651 
_cell_length_b                    51.521776608690885 
_cell_length_c                    30.447144084746594 
_cell_angle_alpha                 89.86198037623927 
_cell_angle_beta                  90.21523613515575 
_cell_angle_gamma                 119.85049362563248 
loop_ 
_atom_site_label 
_atom_site_type_symbol 
_atom_site_fract_x 
_atom_site_fract_y 
_atom_site_fract_z 
_atom_site_charge 
C1          C  0.22834176  0.21333887  0.28485412     0.81700
N2          N  0.23001198  0.21209025  0.24033159    -0.76600
C3          C  0.25424452  0.23338648  0.21801681     0.84200
N4          N  0.27690653  0.25596303  0.24090402    -0.76500
C5          C  0.27545914  0.25767384  0.28519327     0.84300
N6          N  0.25113049  0.23636560  0.30671545    -0.78200
C7          C  0.23332433  0.21154386  0.81803751     0.81700
N8          N  0.23318070  0.21071344  0.86271564    -0.76600
C9          C  0.25658621  0.23206725  0.88611401     0.84200
N10         N  0.28002478  0.25459776  0.86471438    -0.76500
C11         C  0.28038560  0.25583318  0.82025306     0.84300
N12         N  0.25710266  0.23421588  0.79716847    -0.78200
C13         C  0.24557453  0.47858756  0.28729601     0.81700
N14         N  0.22146822  0.47609806  0.30898436    -0.76600
C15         C  0.19907457  0.47710346  0.28691038     0.84200
N16         N  0.20071388  0.48027696  0.24263557    -0.76500
C17         C  0.22453497  0.48255884  0.22037956     0.84300
N18         N  0.24706049  0.48191914  0.24290836    -0.78200
C19         C  0.25146696  0.48944113  0.82185730     0.81700
N20         N  0.25134450  0.48898924  0.86654310    -0.76600
C21         C  0.22980241  0.49112785  0.88934709     0.84200
N22         N  0.20837385  0.49369864  0.86694329    -0.76500
C23         C  0.20833994  0.49441281  0.82246172     0.84300
N24         N  0.22990849  0.49223030  0.80019972    -0.78200
C25         C  0.49290242  0.23994964  0.28886174     0.81700
N26         N  0.49699074  0.21884426  0.30938436    -0.76600
C27         C  0.49912224  0.19752586  0.28623562     0.84200
N28         N  0.49670554  0.19720793  0.24180539    -0.76500
C29         C  0.49281198  0.21828579  0.22061800     0.84300
N30         N  0.49105143  0.23973546  0.24428369    -0.78200
C31         C  0.46789985  0.22662446  0.82258569     0.81700
N32         N  0.46479945  0.20177958  0.80215412    -0.76600
C33         C  0.46484692  0.17918080  0.82529350     0.84200
N34         N  0.46833295  0.18177424  0.86960437    -0.76500
C35         C  0.47136819  0.20635302  0.89070543     0.84300
N36         N  0.47113197  0.22861170  0.86697747    -0.78200
O37         O  0.42046155  0.00338075  0.50507114    -0.86700
C38         C  0.07395377  0.06261299  0.61647192     1.13400
O39         O  0.45483970  0.47780070  0.55484336    -1.34500
O40         O  0.05306029  0.06757980  0.50449501    -0.88100
O41         O  0.39471745  0.45360602  0.50606866    -0.88800
O42         O  0.45344452  0.44527522  0.46283220    -0.77600
O43         O  0.48672665  0.03607802  0.51298783    -0.99700
C44         C  0.03782165  0.47349173  0.47452815     1.23400
O45         O  0.48493533  0.44540446  0.55551179    -1.34600
Mn46       Mn  0.48607587  0.47743463  0.60221542     1.82100
O47         O  0.01505948  0.47432303  0.46212653    -0.76700
O48         O  0.07570217  0.04037406  0.50077233    -0.86100
C49         C  0.04051366  0.47806141  0.63481396     1.14500
C50         C  0.07186683  0.06161294  0.48701266     1.09200
O51         O  0.45551138  0.44715790  0.64786429    -0.77600
O52         O  0.01701205  0.00764450  0.55387092    -1.31300
O53         O  0.42690438  0.41974394  0.59720548    -0.96900
C54         C  0.48350573  0.38819061  0.49421674     1.08000
Mn55       Mn  0.05877168  0.00897025  0.55239581     1.48600
O56         O  0.45865834  0.38458322  0.50796942    -0.86100
Mn57       Mn  0.41225762  0.43856313  0.55562667     1.49600
O58         O  0.42078663  0.00436980  0.60352582    -0.89900
C59         C  0.48696088  0.03160950  0.47376319     1.21100
C60         C  0.40047929  0.47988141  0.61924009     1.13200
Mn61       Mn  0.48514828  0.47647030  0.50708593     1.81000
O62         O  0.04391548  0.47652465  0.59561714    -0.95100
Mn63       Mn  0.45321255  0.01818674  0.55423258     1.49300
C64         C  0.39980352  0.47863924  0.49050883     1.09700
Mn65       Mn  0.02384531  0.44160105  0.55711840     1.49900
C66         C  0.48378133  0.39014760  0.62244673     1.12600
O67         O  0.42631186  0.41863523  0.51495156    -1.00900
O68         O  0.07843953  0.04268922  0.59954550    -0.90500
C69         C  0.43063950  0.42195993  0.47553730     1.23900
O70         O  0.04235503  0.47405048  0.51382258    -1.01300
O71         O  0.05320696  0.06732821  0.60338213    -0.88700
O72         O  0.00848088  0.41001732  0.60877399    -0.88300
O73         O  0.39535870  0.45462592  0.60466179    -0.88300
Mn74       Mn  0.02054234  0.05048075  0.55406516     1.47900
O75         O  0.01729527  0.47791028  0.64706228    -0.76800
C76         C  0.43177592  0.42439152  0.63636970     1.17000
O77         O  0.48604411  0.00787661  0.46188018    -0.75500
O78         O  0.48645023  0.00855749  0.64652866    -0.75100
Mn79       Mn  0.44465752  0.40362132  0.55653549     1.51100
O80         O  0.00811177  0.40754959  0.51031687    -0.87500
O81         O  0.48682945  0.03680568  0.59564712    -0.95000
O82         O  0.45924666  0.38585208  0.60607082    -0.90000
C83         C  0.48630420  0.03177433  0.63491406     1.14700
C84         C  0.45316610  0.12369340  0.73484647     0.14200
C85         C  0.46717718  0.10859063  0.75266941     0.01200
C86         C  0.47708237  0.11419245  0.79648931     0.16100
C87         C  0.47486048  0.13597071  0.82102945     0.25500
C88         C  0.46313841  0.15299295  0.80191711    -0.40800
C89         C  0.45133194  0.14575799  0.75899679     0.32600
C90         C  0.47344384  0.08895474  0.72424945     0.01200
F91         F  0.99397395  0.10261836  0.81281082    -0.13100
F92         F  0.43818223  0.16017950  0.74000548    -0.13600
C93         C  0.48877632  0.10021738  0.68444344     0.16100
C94         C  0.49355390  0.08181494  0.65602903     0.25500
C95         C  0.48372733  0.05182581  0.66718351    -0.40700
C96         C  0.46961727  0.04086112  0.70799462     0.32500
C97         C  0.46426176  0.05920160  0.73610068     0.14200
F98         F  0.49924510  0.12924640  0.67302059    -0.13100
F99         F  0.45969273  0.01199748  0.71980214    -0.13600
F100        F  0.00700753  0.09315766  0.61546504    -0.15900
F101        F  0.44909718  0.04753147  0.77404733    -0.14500
F102        F  0.44176390  0.11747663  0.69345855    -0.14500
F103        F  0.98924704  0.14412642  0.86087402    -0.15900
C104        C  0.47800281  0.30316417  0.79207093     0.14200
C105        C  0.47451383  0.30074379  0.74636673     0.01200
C106        C  0.95818161  0.27098002  0.72991862     0.16100
C107        C  0.95613558  0.24713092  0.75470598     0.25500
C108        C  0.46916602  0.25190028  0.79650511    -0.40800
C109        C  0.47533404  0.27904542  0.81700766     0.32600
C110        C  0.47774956  0.32614107  0.71956866     0.01200
F111        F  0.94691798  0.26577707  0.68845020    -0.13100
F112        F  0.47914589  0.28261979  0.86115514    -0.13600
C113        C  0.50557962  0.34668920  0.70166256     0.16100
C114        C  0.50797239  0.36848468  0.67170485     0.25500
C115        C  0.48233701  0.36983226  0.65865587    -0.40700
C116        C  0.45465224  0.34982530  0.67854569     0.32500
C117        C  0.45250019  0.32832861  0.70870723     0.14200
F118        F  0.53027437  0.34488309  0.71200179    -0.13100
F119        F  0.42927481  0.35024889  0.66794030    -0.13600
F120        F  0.53517984  0.38727331  0.65410737    -0.15900
F121        F  0.42545604  0.30885480  0.72619513    -0.14500
F122        F  0.48415196  0.32899982  0.81253904    -0.14500
F123        F  0.94225852  0.21938181  0.73660042    -0.15900
C124        C  0.01116283  0.08400717  0.37551041     0.14200
C125        C  0.49871220  0.10259787  0.38733841     0.01200
C126        C  0.48206211  0.09669669  0.42614756     0.16100
C127        C  0.47776712  0.07319514  0.45352406     0.25500
C128        C  0.48952533  0.05461719  0.44230016    -0.40800
C129        C  0.00624794  0.05999467  0.40273782     0.32600
C130        C  0.50300920  0.12782170  0.35897703     0.01200
F131        F  0.46969443  0.11364771  0.43745529    -0.13100
F132        F  0.01844889  0.04285910  0.39172809    -0.13600
C133        C  0.49217427  0.12261429  0.31564945     0.16100
C134        C  0.49208044  0.14557964  0.29112141     0.25500
C135        C  0.50260161  0.17415285  0.30974027    -0.40700
C136        C  0.01641027  0.17987132  0.35164165     0.32500
C137        C  0.01682170  0.15701796  0.37582911     0.14200
F138        F  0.47999252  0.09479559  0.29797932    -0.13100
F139        F  0.02840459  0.20750467  0.36994099    -0.13600
F140        F  0.48006496  0.13922562  0.25014101    -0.15900
F141        F  0.02894848  0.16306244  0.41678774    -0.11500
F142        F  0.02782755  0.08948676  0.33863265    -0.14500
F143        F  0.46203208  0.06864025  0.49119304    -0.15900
C144        C  0.51097035  0.35324894  0.40943581     0.14200
C145        C  0.48432297  0.32748713  0.39729571     0.01200
C146        C  0.45716113  0.32251706  0.41523368     0.16100
C147        C  0.45669991  0.34247953  0.44587455     0.25500
C148        C  0.48353178  0.36801241  0.45922022    -0.40800
C149        C  0.51064445  0.37334552  0.43988438     0.32600
C150        C  0.48516944  0.30487562  0.36823893     0.01200
F151        F  0.43101278  0.29801619  0.40343535    -0.13100
F152        F  0.03691255  0.39765972  0.45113119    -0.13600
C153        C  0.97509519  0.27511898  0.38447238     0.16100
C154        C  0.97725857  0.25410900  0.35818040     0.25500
C155        C  0.48960395  0.26223020  0.31539544    -0.40700
C156        C  0.49960714  0.29140303  0.29957637     0.32500
C157        C  0.49748635  0.31256181  0.32586825     0.14200
F158        F  0.96346989  0.26703269  0.42545939    -0.13100
F159        F  0.51236320  0.29978859  0.25930892    -0.13600
F160        F  0.96650721  0.22593103  0.37400267    -0.15900
F161        F  0.50754144  0.34061954  0.31003047    -0.14500
F162        F  0.03777183  0.35818397  0.39402354    -0.14500
F163        F  0.42997919  0.33615082  0.46330504    -0.15900
C164        C  0.00038643  0.24267817  0.10176725     0.14200
C165        C  0.48490861  0.21498708  0.07981524     0.01200
C166        C  0.47143119  0.18850732  0.10468718     0.16100
C167        C  0.47392624  0.18962306  0.15045836     0.25500
C168        C  0.48980250  0.21729709  0.17224888    -0.40800
C169        C  0.00271325  0.24380591  0.14763860     0.32600
C170        C  0.48229754  0.21360163  0.03131262     0.01200
F171        F  0.45532399  0.16154850  0.08461533    -0.13100
F172        F  0.01837978  0.27082829  0.16766108    -0.13600
C173        C  0.99348223  0.19829244  0.00704964     0.16100
C174        C  0.99009078  0.19606104  0.96137488     0.25500
C175        C  0.47542934  0.20911893  0.93905246    -0.40700
C176        C  0.46489042  0.22512577  0.96359780     0.32500
C177        C  0.46824807  0.22726775  0.00928855     0.14200
F178        F  0.00809365  0.18579221  0.02742012    -0.13100
F179        F  0.45045120  0.23793090  0.94361290    -0.13600
F180        F  0.00181383  0.18163619  0.93880599    -0.15900
F181        F  0.45699120  0.24198631  0.03223205    -0.14500
F182        F  0.01384548  0.26858116  0.07845961    -0.14500
F183        F  0.46006584  0.16363796  0.17354005    -0.15900
C184        C  0.33765799  0.45488749  0.70296337     0.14200
C185        C  0.34172557  0.48235397  0.71813981     0.01200
C186        C  0.36647867  0.50899394  0.70352234     0.16100
C187        C  0.38611508  0.50827135  0.67251679     0.25500
C188        C  0.38137941  0.48071405  0.65543388    -0.40800
C189        C  0.35724225  0.45398781  0.67213541     0.32600
C190        C  0.31863329  0.48321896  0.74592329     0.01200
F191        F  0.37080019  0.53585054  0.71764488    -0.13100
F192        F  0.35183449  0.42681076  0.65785514    -0.13600
C193        C  0.32510616  0.99462038  0.78889760     0.16100
C194        C  0.30316504  0.99609898  0.81414368     0.25500
C195        C  0.27449152  0.48655988  0.79652514    -0.40700
C196        C  0.26798727  0.47448214  0.75374470     0.32500
C197        C  0.28980926  0.47283234  0.72884158     0.14200
F198        F  0.35272343  0.00441671  0.80630212    -0.13100
F199        F  0.24034830  0.46391557  0.73592990    -0.13600
F200        F  0.31037128  0.00780414  0.85522203    -0.15900
F201        F  0.28296958  0.46165545  0.68741868    -0.14500
F202        F  0.31418771  0.42881574  0.71738887    -0.14500
F203        F  0.40915775  0.53472211  0.65837062    -0.15900
C204        C  0.16672421  0.50924816  0.73213035     0.14200
C205        C  0.13745350  0.49512363  0.74883983     0.01200
C206        C  0.13208897  0.48292444  0.79134227     0.16100
C207        C  0.15537627  0.48372513  0.81606115     0.25500
C208        C  0.18437818  0.49631501  0.79833774    -0.40800
C209        C  0.18991627  0.50959849  0.75643904     0.32600
C210        C  0.11222603  0.49070129  0.72042954     0.01200
F211        F  0.10394959  0.46869595  0.80798388    -0.13100
F212        F  0.21777565  0.52286341  0.73883046    -0.13600
C213        C  0.10788118  0.47623282  0.67982430     0.16100
C214        C  0.08420241  0.47162867  0.65263170     0.25500
C215        C  0.06398351  0.48101865  0.66570031    -0.40700
C216        C  0.06796503  0.99507328  0.70680532     0.32500
C217        C  0.09205023  0.00005712  0.73387212     0.14200
F218        F  0.12642591  0.46613035  0.66664063    -0.13100
F219        F  0.04922976  0.00490191  0.72005996    -0.13600
F220        F  0.08104391  0.45778876  0.61344043    -0.15900
F221        F  0.09604117  0.01453605  0.77265669    -0.14500
F222        F  0.17272960  0.52223029  0.69178374    -0.14500
F223        F  0.14906841  0.47061901  0.85630440    -0.15900
C224        C  0.34017134  0.45190170  0.40116577     0.14200
C225        C  0.33917900  0.47809125  0.39183721     0.01200
C226        C  0.35950787  0.50488942  0.41275754     0.16100
C227        C  0.37980151  0.50532618  0.44378327     0.25500
C228        C  0.38015392  0.47881834  0.45463438    -0.40800
C229        C  0.36043078  0.45219952  0.43213110     0.32600
C230        C  0.31540360  0.47699383  0.36309922     0.01200
F231        F  0.35869270  0.53041937  0.40477582    -0.13100
F232        F  0.36035989  0.42624307  0.44032430    -0.13600
C233        C  0.28528574  0.45906959  0.37505208     0.16100
C234        C  0.26265687  0.45921664  0.34990618     0.25500
C235        C  0.26966244  0.47729148  0.31214515    -0.40700
C236        C  0.29982288  0.49467387  0.29949530     0.32500
C237        C  0.32252010  0.49464543  0.32495802     0.14200
F238        F  0.27770716  0.94189012  0.41186654    -0.13100
F239        F  0.30745732  0.51255502  0.26348361    -0.13600
F240        F  0.23377675  0.94144142  0.36232416    -0.15900
F241        F  0.35147279  0.51197639  0.31256275    -0.14500
F242        F  0.32113472  0.42584638  0.38063148    -0.14500
F243        F  0.39812889  0.53154329  0.46446974    -0.15900
C244        C  0.07246402  0.46020384  0.37326531     0.14200
C245        C  0.10225313  0.47206782  0.38721543     0.01200
C246        C  0.11070593  0.48471906  0.42912287     0.16100
C247        C  0.08968491  0.48513343  0.45717875     0.25500
C248        C  0.05972536  0.47330458  0.44359331    -0.40800
C249        C  0.05127484  0.46089754  0.40126791     0.32600
C250        C  0.12489146  0.47116617  0.35886043     0.01200
F251        F  0.13955871  0.49696807  0.44275390    -0.13100
F252        F  0.02241176  0.44846809  0.38769874    -0.13600
C253        C  0.13545875  0.48940880  0.32144887     0.16100
C254        C  0.15933318  0.49102727  0.29749816     0.25500
C255        C  0.17304325  0.47450925  0.31089730    -0.40700
C256        C  0.16197519  0.45584603  0.34799507     0.32500
C257        C  0.13806354  0.45416625  0.37168924     0.14200
F258        F  0.12352084  0.00664846  0.30950795    -0.13100
F259        F  0.17415259  0.43904095  0.36120929    -0.13600
F260        F  0.17000376  0.00998233  0.26269178    -0.15900
F261        F  0.12796668  0.43624921  0.40767264    -0.14500
F262        F  0.06383006  0.44731493  0.33306654    -0.14500
F263        F  0.09891869  0.49770303  0.49749637    -0.15900
C264        C  0.19906573  0.47098014  0.10160324     0.14200
C265        C  0.22638919  0.48694773  0.07935859     0.01200
C266        C  0.25308090  0.50195066  0.10360632     0.16100
C267        C  0.25254676  0.50067670  0.14948406     0.25500
C268        C  0.22522749  0.48450821  0.17189647    -0.40800
C269        C  0.19844670  0.46981929  0.14746219     0.32600
C270        C  0.22712258  0.48786585  0.03083950     0.01200
F271        F  0.27965066  0.51825557  0.08275698    -0.13100
F272        F  0.17168420  0.45346909  0.16782837    -0.13600
C273        C  0.21236403  0.00028106  0.00759989     0.16100
C274        C  0.21331890  0.00142839  0.96175465     0.25500
C275        C  0.22916906  0.49021920  0.93813184    -0.40700
C276        C  0.24389786  0.47772164  0.96174650     0.32500
C277        C  0.24282634  0.47655898  0.00762692     0.14200
F278        F  0.19743784  0.01180428  0.02938103    -0.13100
F279        F  0.25876447  0.46590751  0.94059465    -0.13600
F280        F  0.19920624  0.01419706  0.94069586    -0.15900
F281        F  0.25664463  0.46379162  0.02948204    -0.14500
F282        F  0.17301999  0.45587237  0.07883470    -0.14500
F283        F  0.27869533  0.51585043  0.17195153    -0.15900
C284        C  0.39984947  0.37584501  0.73762429     0.14200
C285        C  0.37039641  0.35632981  0.72366313     0.01200
C286        C  0.36068554  0.36100906  0.68289277     0.16100
C287        C  0.38045861  0.38385786  0.65534240     0.25500
C288        C  0.41037555  0.40279405  0.66825601    -0.40800
C289        C  0.41973805  0.39908988  0.71016023     0.32600
C290        C  0.34964972  0.33046517  0.75060063     0.01200
F291        F  0.33197125  0.34312645  0.66954250    -0.13100
F292        F  0.44850197  0.41669306  0.72343163    -0.13600
C293        C  0.33998672  0.33479308  0.79151305     0.16100
C294        C  0.31797435  0.31036495  0.81478749     0.25500
C295        C  0.30517053  0.28126895  0.79724065    -0.40700
C296        C  0.31547076  0.27694049  0.75673507     0.32500
C297        C  0.33767169  0.30134466  0.73374912     0.14200
F298        F  0.35081725  0.36281967  0.80786909    -0.13100
F299        F  0.30411944  0.24908841  0.73944437    -0.13600
F300        F  0.30803757  0.31539481  0.85331156    -0.15900
F301        F  0.34727339  0.29666174  0.69465044    -0.14500
F302        F  0.40968015  0.37151231  0.77689332    -0.14500
F303        F  0.37030747  0.38720806  0.61569229    -0.15900
C304        C  0.16328611  0.13870317  0.78631918     0.14200
C305        C  0.16012334  0.14389806  0.74194786     0.01200
C306        C  0.18057923  0.17124987  0.72275186     0.16100
C307        C  0.20417563  0.19320009  0.74738969     0.25500
C308        C  0.20777637  0.18824508  0.79210996    -0.40800
C309        C  0.18680239  0.16069889  0.81134107     0.32600
C310        C  0.13594926  0.12078500  0.71479159     0.01200
F311        F  0.17786974  0.17652186  0.67971398    -0.13100
F312        F  0.18922637  0.15467536  0.85410380    -0.13600
C313        C  0.11171413  0.12422683  0.70192295     0.16100
C314        C  0.09091779  0.10472629  0.67127685     0.25500
C315        C  0.09423653  0.08151088  0.65241728    -0.40700
C316        C  0.11798300  0.07738209  0.66728164     0.32500
C317        C  0.13856933  0.09686907  0.69817111     0.14200
F318        F  0.10866058  0.14705136  0.71828662    -0.13100
F319        F  0.12203078  0.05511263  0.65110898    -0.13600
F320        F  0.06807271  0.10925213  0.65936541    -0.15900
F321        F  0.16192163  0.09322506  0.71038915    -0.14500
F322        F  0.14354500  0.11231982  0.80537082    -0.14500
F323        F  0.22324867  0.21938491  0.72723852    -0.15900
C324        C  0.31540393  0.31786448  0.37088863     0.14200
C325        C  0.34561788  0.32906416  0.36004799     0.01200
C326        C  0.35274989  0.31725998  0.32341224     0.16100
C327        C  0.32997020  0.29439276  0.29835762     0.25500
C328        C  0.29973831  0.28269749  0.31000949    -0.40800
C329        C  0.29275112  0.29480278  0.34641927     0.32600
C330        C  0.36928120  0.35229692  0.38827163     0.01200
F331        F  0.38175165  0.32712440  0.31284918    -0.13100
F332        F  0.26385438  0.28466755  0.35796116    -0.13600
C333        C  0.36950629  0.34694283  0.43343587     0.16100
C334        C  0.38943383  0.36951144  0.46143241     0.25500
C335        C  0.41010671  0.39806087  0.44484875    -0.40700
C336        C  0.41082707  0.40300158  0.39920893     0.32500
C337        C  0.39047663  0.38032066  0.37119226     0.14200
F338        F  0.35018704  0.31967883  0.45059025    -0.13100
F339        F  0.43061450  0.42996595  0.38176979    -0.13600
F340        F  0.38845743  0.36315068  0.50492427    -0.15900
F341        F  0.39076812  0.38608265  0.32761628    -0.14500
F342        F  0.30779914  0.32944086  0.40527722    -0.14500
F343        F  0.33752237  0.28287481  0.26384994    -0.15900
C344        C  0.10756089  0.12520921  0.40316965     0.14200
C345        C  0.12989292  0.12058706  0.38506945     0.01200
C346        C  0.13156851  0.09525987  0.39759765     0.16100
C347        C  0.11212977  0.07551652  0.42939392     0.25500
C348        C  0.09054286  0.08078485  0.44967654    -0.40800
C349        C  0.08802848  0.10556330  0.43501570     0.32600
C350        C  0.15420409  0.14435746  0.35859799     0.01200
F351        F  0.15299364  0.09035898  0.38029004    -0.13100
F352        F  0.06749262  0.11167922  0.45257501    -0.13600
C353        C  0.18055847  0.16516565  0.37980588     0.16100
C354        C  0.20431022  0.18752472  0.35600972     0.25500
C355        C  0.20236082  0.18964269  0.30991482    -0.40700
C356        C  0.17553012  0.16877538  0.28872070     0.32500
C357        C  0.15167695  0.14635711  0.31294574     0.14200
F358        F  0.18334291  0.16369483  0.42398201    -0.13100
F359        F  0.17211076  0.17011224  0.24469097    -0.13600
F360        F  0.22939986  0.20671887  0.37848408    -0.15900
F361        F  0.12620396  0.12651310  0.29184979    -0.14500
F362        F  0.10563304  0.14965648  0.39154333    -0.14500
F363        F  0.11536995  0.05190763  0.44127674    -0.15900
C364        C  0.23099138  0.22552549  0.00386537     0.14200
C365        C  0.25709358  0.23176021  0.02718992     0.01200
C366        C  0.28297945  0.23793685  0.00363738     0.16100
C367        C  0.28278255  0.23804515  0.95770701     0.25500
C368        C  0.25652881  0.23132947  0.93451548    -0.40800
C369        C  0.23060495  0.22493454  0.95795051     0.32600
C370        C  0.25718029  0.23179682  0.07596659     0.01200
F371        F  0.30832745  0.24334246  0.02508146    -0.13100
F372        F  0.20521692  0.21927035  0.93638005    -0.13600
C373        C  0.23557705  0.20685204  0.09929070     0.16100
C374        C  0.23470489  0.20719537  0.14519042     0.25500
C375        C  0.25570307  0.23248614  0.16906844    -0.40700
C376        C  0.27790686  0.25721465  0.14538743     0.32500
C377        C  0.27846075  0.25687485  0.09945545     0.14200
F378        F  0.21538437  0.18187983  0.07752378    -0.13100
F379        F  0.29886750  0.28218165  0.16630669    -0.13600
F380        F  0.21328228  0.18250492  0.16598571    -0.15900
F381        F  0.29936218  0.28153213  0.07787595    -0.14500
F382        F  0.20605018  0.22078930  0.02558037    -0.14500
F383        F  0.30809198  0.24403564  0.93585785    -0.15900
C384        C  0.22812437  0.71342609  0.28484500     0.81700
N385        N  0.22982702  0.71215502  0.24033185    -0.76600
C386        C  0.25406855  0.73345157  0.21803488     0.84200
N387        N  0.27670417  0.75604677  0.24093158    -0.76500
C388        C  0.27522091  0.75778054  0.28521250     0.84300
N389        N  0.25088355  0.73647302  0.30671973    -0.78200
C390        C  0.23333403  0.71148184  0.81807774     0.81700
N391        N  0.23320060  0.71065675  0.86275543    -0.76600
C392        C  0.25658086  0.73204505  0.88614936     0.84200
N393        N  0.27998538  0.75461243  0.86474822    -0.76500
C394        C  0.28033635  0.75584474  0.82028581     0.84300
N395        N  0.25708095  0.73418937  0.79720661    -0.78200
C396        C  0.24565920  0.97871358  0.28729996     0.81700
N397        N  0.22155081  0.97621246  0.30899631    -0.76600
C398        C  0.19917631  0.97726591  0.28694276     0.84200
N399        N  0.20083717  0.98049964  0.24267945    -0.76500
C400        C  0.22465976  0.98279492  0.22041309     0.84300
N401        N  0.24716614  0.98210405  0.24292109    -0.78200
C402        C  0.25138665  0.98928796  0.82190279     0.81700
N403        N  0.25125005  0.98881967  0.86658982    -0.76600
C404        C  0.22971331  0.99097159  0.88938729     0.84200
N405        N  0.20829985  0.99356508  0.86698194    -0.76500
C406        C  0.20827837  0.99429575  0.82250254     0.84300
N407        N  0.22984637  0.99210904  0.80024243    -0.78200
C408        C  0.49275817  0.73997153  0.28859255     0.81700
N409        N  0.49675933  0.71883456  0.30919695    -0.76600
C410        C  0.49888235  0.69748494  0.28612007     0.84200
N411        N  0.49655207  0.69717012  0.24167984    -0.76500
C412        C  0.49275112  0.71827780  0.22040982     0.84300
N413        N  0.49099346  0.73975779  0.24400260    -0.78200
C414        C  0.46778112  0.72640325  0.82233816     0.81700
N415        N  0.46445182  0.70143399  0.80203035    -0.76600
C416        C  0.46436471  0.67880311  0.82524953     0.84200
N417        N  0.46792316  0.68147325  0.86954018    -0.76500
C418        C  0.47116503  0.70616509  0.89053911     0.84300
N419        N  0.47108848  0.72847808  0.86672525    -0.78200
O420        O  0.42054760  0.50351973  0.50502648    -0.86700
C421        C  0.07395974  0.56256068  0.61655559     1.13400
O422        O  0.45481012  0.97774208  0.55490089    -1.34500
O423        O  0.05306189  0.56759080  0.50456454    -0.88100
O424        O  0.39465038  0.95346468  0.50617279    -0.88800
O425        O  0.45337645  0.94521087  0.46289476    -0.77600
O426        O  0.48679343  0.53610410  0.51295569    -0.99700
C427        C  0.03785496  0.97344600  0.47455331     1.23400
O428        O  0.48496443  0.94540377  0.55551081    -1.34600
Mn429      Mn  0.48609835  0.97742819  0.60223219     1.82100
O430        O  0.01509447  0.97427130  0.46212945    -0.76700
O431        O  0.07568762  0.54037103  0.50083173    -0.86100
C432        C  0.04055742  0.97813376  0.63482391     1.14500
C433        C  0.07185421  0.56160949  0.48706910     1.09200
O434        O  0.45557085  0.94714317  0.64793662    -0.77600
O435        O  0.01700424  0.50765395  0.55391825    -1.31300
O436        O  0.42696551  0.91971279  0.59729693    -0.96900
C437        C  0.48354609  0.88822294  0.49412454     1.08000
Mn438      Mn  0.05874751  0.50894549  0.55242022     1.48600
O439        O  0.45870754  0.88455493  0.50802948    -0.86100
Mn440      Mn  0.41225002  0.93847121  0.55572644     1.49600
O441        O  0.42086329  0.50448247  0.60347801    -0.89900
C442        C  0.48698867  0.53162832  0.47372950     1.21100
C443        C  0.40043087  0.97976427  0.61931820     1.13200
Mn444      Mn  0.48510089  0.97643816  0.50709386     1.81000
O445        O  0.04394761  0.97657559  0.59563091    -0.95100
Mn446      Mn  0.45329042  0.51827454  0.55419547     1.49300
C447        C  0.39971759  0.97848642  0.49058651     1.09700
Mn448      Mn  0.02389973  0.94162339  0.55718442     1.49900
C449        C  0.48399187  0.89019973  0.62239243     1.12600
O450        O  0.42631172  0.91855271  0.51505421    -1.00900
O451        O  0.07842730  0.54263016  0.59961078    -0.90500
C452        C  0.43059932  0.92187886  0.47563113     1.23900
O453        O  0.04240217  0.97404670  0.51384926    -1.01300
O454        O  0.05323618  0.56731094  0.60346247    -0.88700
O455        O  0.00852824  0.91006597  0.60888994    -0.88300
O456        O  0.39534036  0.95451428  0.60476502    -0.88300
Mn457      Mn  0.02056182  0.55050092  0.55415766     1.47900
O458        O  0.01732025  0.97794845  0.64706507    -0.76800
C459        C  0.43182814  0.92437724  0.63645758     1.17000
O460        O  0.48611940  0.50791733  0.46184643    -0.75500
O461        O  0.48644803  0.50856414  0.64647692    -0.75100
Mn462      Mn  0.44472297  0.90359017  0.55662860     1.51100
O463        O  0.00820208  0.90756408  0.51040552    -0.87500
O464        O  0.48690679  0.53687653  0.59562194    -0.95000
O465        O  0.45940004  0.88587168  0.60617636    -0.90000
C466        C  0.48634014  0.53180154  0.63488459     1.14700
C467        C  0.45269230  0.62332402  0.73483083     0.14200
C468        C  0.46668198  0.60821248  0.75269787     0.01200
C469        C  0.47647007  0.61373431  0.79657308     0.16100
C470        C  0.47419453  0.63547692  0.82111943     0.25500
C471        C  0.46255180  0.65255055  0.80194690    -0.40800
C472        C  0.45082008  0.64536654  0.75898079     0.32600
C473        C  0.47308692  0.58868397  0.72426697     0.01200
F474        F  0.99375167  0.60247477  0.81284538    -0.13100
F475        F  0.43775625  0.65985533  0.73992518    -0.13600
C476        C  0.48854116  0.60006717  0.68457620     0.16100
C477        C  0.49346330  0.58176741  0.65615321     0.25500
C478        C  0.48365931  0.55176724  0.66718895    -0.40700
C479        C  0.46943943  0.54068888  0.70790313     0.32500
C480        C  0.46394005  0.55892363  0.73601293     0.14200
F481        F  0.49898664  0.62911276  0.67327811    -0.13100
F482        F  0.45954276  0.51181166  0.71960450    -0.13600
F483        F  0.00717811  0.59321463  0.61574329    -0.15900
F484        F  0.44867165  0.54714301  0.77385106    -0.14500
F485        F  0.44138599  0.61716407  0.69338618    -0.14500
F486        F  0.98909647  0.64403284  0.86087415    -0.15900
C487        C  0.47551117  0.80202586  0.79202461     0.14200
C488        C  0.47504942  0.80079364  0.74606007     0.01200
C489        C  0.95818809  0.77099170  0.72991705     0.16100
C490        C  0.95613282  0.74712944  0.75468227     0.25500
C491        C  0.46927414  0.75173041  0.79610676    -0.40800
C492        C  0.47268478  0.77781740  0.81690404     0.32600
C493        C  0.47829118  0.82624363  0.71936300     0.01200
F494        F  0.94699996  0.76581749  0.68840429    -0.13100
F495        F  0.47343882  0.78019569  0.86133699    -0.13600
C496        C  0.50596582  0.84642069  0.70064414     0.16100
C497        C  0.50828570  0.86824852  0.67081734     0.25500
C498        C  0.48269817  0.86991926  0.65854971    -0.40700
C499        C  0.45518426  0.85024718  0.67913890     0.32500
C500        C  0.45313649  0.82881086  0.70935006     0.14200
F501        F  0.53058991  0.84430704  0.71023847    -0.13100
F502        F  0.42985494  0.85091900  0.66913368    -0.13600
F503        F  0.53534417  0.88672721  0.65254509    -0.15900
F504        F  0.42622676  0.80964332  0.72749810    -0.14500
F505        F  0.47895542  0.82683300  0.81282224    -0.14500
F506        F  0.94231899  0.71940195  0.73650654    -0.15900
C507        C  0.01109779  0.58416704  0.37575547     0.14200
C508        C  0.49834904  0.60248454  0.38729809     0.01200
C509        C  0.48193363  0.59668829  0.42632674     0.16100
C510        C  0.47775978  0.57323012  0.45370563     0.25500
C511        C  0.48939397  0.55457707  0.44226761    -0.40800
C512        C  0.00622393  0.56014276  0.40292372     0.32600
C513        C  0.50258504  0.62770803  0.35896854     0.01200
F514        F  0.46967844  0.61370125  0.43786062    -0.13100
F515        F  0.01852807  0.54310030  0.39191112    -0.13600
C516        C  0.49173774  0.62250663  0.31564493     0.16100
C517        C  0.49169587  0.64548958  0.29109869     0.25500
C518        C  0.50226011  0.67407486  0.30969656    -0.40700
C519        C  0.01603019  0.67989435  0.35196858     0.32500
C520        C  0.01643416  0.65705213  0.37619539     0.14200
F521        F  0.47951111  0.59468332  0.29797941    -0.13100
F522        F  0.02787755  0.70749438  0.37033778    -0.13600
F523        F  0.47970200  0.63914735  0.25010504    -0.15900
F524        F  0.02841850  0.66308179  0.41724357    -0.11500
F525        F  0.02784087  0.58975859  0.33893840    -0.14500
F526        F  0.46226402  0.56879538  0.49158909    -0.15900
C527        C  0.51092781  0.85327819  0.40918944     0.14200
C528        C  0.48424331  0.82761080  0.39689597     0.01200
C529        C  0.45709161  0.82272170  0.41475917     0.16100
C530        C  0.45667330  0.84265680  0.44549666     0.25500
C531        C  0.48354087  0.86807827  0.45903142    -0.40800
C532        C  0.51064803  0.87334439  0.43974768     0.32600
C533        C  0.48503816  0.80497315  0.36782986     0.01200
F534        F  0.43091004  0.79831865  0.40280249    -0.13100
F535        F  0.03721322  0.89723646  0.45220661    -0.13600
C536        C  0.97483150  0.77528046  0.38396231     0.16100
C537        C  0.97695812  0.75423064  0.35772418     0.25500
C538        C  0.48944718  0.76227717  0.31505757    -0.40700
C539        C  0.49948551  0.79145247  0.29921130     0.32500
C540        C  0.49738285  0.81263802  0.32547306     0.14200
F541        F  0.96291524  0.76715369  0.42478368    -0.13100
F542        F  0.51226227  0.79981477  0.25895334    -0.13600
F543        F  0.96591243  0.72598162  0.37341899    -0.15900
F544        F  0.50748975  0.84070225  0.30962594    -0.14500
F545        F  0.03801303  0.85786717  0.39482400    -0.14500
F546        F  0.42994862  0.83641085  0.46281714    -0.15900
C547        C  0.00071203  0.74273262  0.10167769     0.14200
C548        C  0.48493137  0.71490205  0.07959587     0.01200
C549        C  0.47137899  0.68844039  0.10450232     0.16100
C550        C  0.47385956  0.68958149  0.15027618     0.25500
C551        C  0.48980289  0.71726412  0.17203073    -0.40800
C552        C  0.00299862  0.74386699  0.14755071     0.32600
C553        C  0.48227368  0.71349868  0.03110176     0.01200
F554        F  0.45520290  0.66147934  0.08446214    -0.13100
F555        F  0.01869322  0.77088820  0.16756693    -0.13600
C556        C  0.99368430  0.69833302  0.00693279     0.16100
C557        C  0.99023011  0.69608856  0.96126796     0.25500
C558        C  0.47530715  0.70898615  0.93886444    -0.40700
C559        C  0.46476528  0.72497264  0.96344119     0.32500
C560        C  0.46817689  0.72713517  0.00912575     0.14200
F561        F  0.00830820  0.68582577  0.02724600    -0.13100
F562        F  0.45025358  0.73771452  0.94349715    -0.13600
F563        F  0.00191630  0.68165146  0.93864079    -0.15900
F564        F  0.45692082  0.74183611  0.03211405    -0.14500
F565        F  0.01423213  0.76862831  0.07835716    -0.14500
F566        F  0.45991222  0.66361707  0.17339591    -0.15900
C567        C  0.33756139  0.95474350  0.70296304     0.14200
C568        C  0.34167875  0.98220568  0.71824818     0.01200
C569        C  0.36647759  0.00884451  0.70372999     0.16100
C570        C  0.38611104  0.00812902  0.67271137     0.25500
C571        C  0.38132813  0.98058106  0.65552048    -0.40800
C572        C  0.35714324  0.95385110  0.67212262     0.32600
C573        C  0.31858039  0.98307553  0.74600713     0.01200
F574        F  0.37084671  0.03569604  0.71796297    -0.13100
F575        F  0.35167747  0.92667991  0.65771885    -0.13600
C576        C  0.32521782  0.49490842  0.78873016     0.16100
C577        C  0.30328609  0.49638918  0.81399476     0.25500
C578        C  0.27442004  0.98641220  0.79657503    -0.40700
C579        C  0.26797783  0.97447962  0.75370551     0.32500
C580        C  0.28980805  0.97283269  0.72882102     0.14200
F581        F  0.35288607  0.50484778  0.80603557    -0.13100
F582        F  0.24038991  0.96405075  0.73577783    -0.13600
F583        F  0.31054630  0.50824067  0.85498404    -0.15900
F584        F  0.28302914  0.96179612  0.68731794    -0.14500
F585        F  0.31404090  0.92867255  0.71728334    -0.14500
F586        F  0.40920164  0.03458039  0.65866248    -0.15900
C587        C  0.16680310  0.00943526  0.73230029     0.14200
C588        C  0.13750095  0.99523152  0.74890050     0.01200
C589        C  0.13206557  0.98286471  0.79129759     0.16100
C590        C  0.15531507  0.98357978  0.81601142     0.25500
C591        C  0.18434890  0.99625503  0.79838620    -0.40800
C592        C  0.18995863  0.00970199  0.75660204     0.32600
C593        C  0.11231097  0.99086228  0.72044478     0.01200
F594        F  0.10389508  0.96855323  0.80782386    -0.13100
F595        F  0.21785219  0.02304676  0.73910550    -0.13600
C596        C  0.10803996  0.97649020  0.67977347     0.16100
C597        C  0.08435564  0.97186498  0.65257903     0.25500
C598        C  0.06405933  0.98114525  0.66569895    -0.40700
C599        C  0.06794246  0.49501267  0.70676078     0.32500
C600        C  0.09202691  0.49998491  0.73381511     0.14200
F601        F  0.12665354  0.96648487  0.66653624    -0.13100
F602        F  0.04927131  0.50493221  0.71996769    -0.13600
F603        F  0.08126394  0.95810057  0.61333836    -0.15900
F604        F  0.09608689  0.51455410  0.77253278    -0.14500
F605        F  0.17287301  0.02256963  0.69206062    -0.14500
F606        F  0.14894291  0.97030676  0.85613695    -0.15900
C607        C  0.34005433  0.95171474  0.40126504     0.14200
C608        C  0.33910278  0.97791802  0.39186305     0.01200
C609        C  0.35944595  0.00471980  0.41275997     0.16100
C610        C  0.37972418  0.00515588  0.44380793     0.25500
C611        C  0.38005175  0.97864301  0.45471529    -0.40800
C612        C  0.36030076  0.95201161  0.43225952     0.32600
C613        C  0.31536180  0.97684890  0.36307029     0.01200
F614        F  0.35866145  0.03026077  0.40472936    -0.13100
F615        F  0.36019277  0.92604417  0.44052228    -0.13600
C616        C  0.28523003  0.95894922  0.37496711     0.16100
C617        C  0.26264188  0.95918059  0.34982453     0.25500
C618        C  0.26970319  0.97732002  0.31212565    -0.40700
C619        C  0.29987490  0.99466604  0.29951637     0.32500
C620        C  0.32253059  0.99454846  0.32497113     0.14200
F621        F  0.27781719  0.44205654  0.41199528    -0.13100
F622        F  0.30756268  0.01260396  0.26356299    -0.13600
F623        F  0.23380625  0.44145149  0.36245411    -0.15900
F624        F  0.35149683  0.01185173  0.31262054    -0.14500
F625        F  0.32099757  0.92565074  0.38076734    -0.14500
F626        F  0.39806577  0.03138320  0.46445729    -0.15900
C627        C  0.07241210  0.95994761  0.37338414     0.14200
C628        C  0.10223387  0.97193801  0.38724228     0.01200
C629        C  0.11072548  0.98469423  0.42908139     0.16100
C630        C  0.08971560  0.98511651  0.45715105     0.25500
C631        C  0.05973225  0.97319889  0.44363508    -0.40800
C632        C  0.05123420  0.96065167  0.40139718     0.32600
C633        C  0.12487815  0.97108315  0.35885566     0.01200
F634        F  0.13960657  0.99704902  0.44262151    -0.13100
F635        F  0.02234133  0.94811020  0.38792382    -0.13600
C636        C  0.13544946  0.98938561  0.32150521     0.16100
C637        C  0.15936651  0.99109110  0.29756945     0.25500
C638        C  0.17311385  0.97459858  0.31092429    -0.40700
C639        C  0.16203476  0.95586831  0.34795408     0.32500
C640        C  0.13808274  0.95410675  0.37163559     0.14200
F641        F  0.12356959  0.50669632  0.30939806    -0.13100
F642        F  0.17424034  0.93907877  0.36111472    -0.13600
F643        F  0.16996797  0.50986267  0.26255860    -0.15900
F644        F  0.12798608  0.93614189  0.40757015    -0.14500
F645        F  0.06374380  0.94694335  0.33326213    -0.14500
F646        F  0.09898410  0.99779828  0.49739642    -0.15900
C647        C  0.19913155  0.97114738  0.10167346     0.14200
C648        C  0.22644432  0.98706344  0.07939346     0.01200
C649        C  0.25315182  0.00208199  0.10359978     0.16100
C650        C  0.25264243  0.00086649  0.14948322     0.25500
C651        C  0.22533285  0.98473435  0.17193109    -0.40800
C652        C  0.19853696  0.97003880  0.14753169     0.32600
C653        C  0.22714313  0.98790961  0.03087708     0.01200
F654        F  0.27971119  0.01833748  0.08270410    -0.13100
F655        F  0.17178184  0.95372399  0.16793162    -0.13600
C656        C  0.21227968  0.50018260  0.00758962     0.16100
C657        C  0.21327818  0.50140595  0.96174594     0.25500
C658        C  0.22909916  0.99010617  0.93816883    -0.40700
C659        C  0.24375291  0.97754102  0.96180924     0.32500
C660        C  0.24272989  0.97645970  0.00769552     0.14200
F661        F  0.19724860  0.51158061  0.02939544    -0.13100
F662        F  0.25849426  0.96558411  0.94067758    -0.13600
F663        F  0.19909161  0.51411027  0.94072047    -0.15900
F664        F  0.25647670  0.96363384  0.02958824    -0.14500
F665        F  0.17307149  0.95603380  0.07893980    -0.14500
F666        F  0.27880331  0.01605141  0.17191781    -0.15900
C667        C  0.39974526  0.87594167  0.73778964     0.14200
C668        C  0.37032006  0.85639737  0.72374201     0.01200
C669        C  0.36066870  0.86103917  0.68289937     0.16100
C670        C  0.38047960  0.88386879  0.65535805     0.25500
C671        C  0.41037985  0.90282116  0.66834620    -0.40800
C672        C  0.41967238  0.89917148  0.71033389     0.32600
C673        C  0.34954872  0.83053016  0.75065532     0.01200
F674        F  0.33197895  0.84313073  0.66946421    -0.13100
F675        F  0.44841521  0.91679105  0.72368507    -0.13600
C676        C  0.33977362  0.83485551  0.79147504     0.16100
C677        C  0.31776683  0.81041361  0.81473524     0.25500
C678        C  0.30508346  0.78130681  0.79726678    -0.40700
C679        C  0.31547671  0.77698572  0.75684029     0.32500
C680        C  0.33767096  0.80140396  0.73386813     0.14200
F681        F  0.35049575  0.86288661  0.80775117    -0.13100
F682        F  0.30422906  0.74912530  0.73962368    -0.13600
F683        F  0.30772022  0.81543115  0.85316558    -0.15900
F684        F  0.34737113  0.79672691  0.69485234    -0.14500
F685        F  0.40951940  0.87163862  0.77712735    -0.14500
F686        F  0.37038160  0.88717811  0.61563788    -0.15900
C687        C  0.16318067  0.63868087  0.78652330     0.14200
C688        C  0.16014030  0.64375335  0.74205945     0.01200
C689        C  0.18072585  0.67099624  0.72272959     0.16100
C690        C  0.20432512  0.69296809  0.74733265     0.25500
C691        C  0.20780237  0.68814392  0.79215894    -0.40800
C692        C  0.18670404  0.66069613  0.81151269     0.32600
C693        C  0.13594187  0.62063727  0.71495189     0.01200
F694        F  0.17812587  0.67614534  0.67960063    -0.13100
F695        F  0.18899336  0.65479033  0.85437806    -0.13600
C696        C  0.11171711  0.62410083  0.70210512     0.16100
C697        C  0.09092348  0.60462957  0.67143421     0.25500
C698        C  0.09423448  0.58142103  0.65253120    -0.40700
C699        C  0.11796467  0.57726240  0.66738628     0.32500
C700        C  0.13855061  0.59672335  0.69829796     0.14200
F701        F  0.10868397  0.64693201  0.71849335    -0.13100
F702        F  0.12200101  0.55499431  0.65117781    -0.13600
F703        F  0.06809358  0.60918163  0.65953231    -0.15900
F704        F  0.16189172  0.59305829  0.71050574    -0.14500
F705        F  0.14331132  0.61240029  0.80569891    -0.14500
F706        F  0.22352083  0.71904351  0.72703429    -0.15900
C707        C  0.31518859  0.81796721  0.37091269     0.14200
C708        C  0.34540267  0.82909550  0.36014153     0.01200
C709        C  0.35252344  0.81725193  0.32354085     0.16100
C710        C  0.32973613  0.79441945  0.29845467     0.25500
C711        C  0.29950314  0.78279124  0.31004197    -0.40800
C712        C  0.29252369  0.79493240  0.34641480     0.32600
C713        C  0.36908123  0.85229619  0.38838864     0.01200
F714        F  0.38152122  0.82704017  0.31304569    -0.13100
F715        F  0.26362731  0.78485545  0.35789520    -0.13600
C716        C  0.36924650  0.84695720  0.43356969     0.16100
C717        C  0.38922932  0.86949556  0.46155980     0.25500
C718        C  0.41001463  0.89799897  0.44495481    -0.40700
C719        C  0.41078353  0.90291827  0.39930415     0.32500
C720        C  0.39038249  0.88027038  0.37129395     0.14200
F721        F  0.34982420  0.81973486  0.45074527    -0.13100
F722        F  0.43068049  0.92983158  0.38183727    -0.13600
F723        F  0.38819370  0.86315048  0.50506525    -0.15900
F724        F  0.39073664  0.88601906  0.32770342    -0.14500
F725        F  0.30759408  0.82958498  0.40526022    -0.14500
F726        F  0.33727853  0.78286254  0.26398651    -0.15900
C727        C  0.10728048  0.62498523  0.40283633     0.14200
C728        C  0.12978113  0.62052290  0.38499724     0.01200
C729        C  0.13165891  0.59535506  0.39782244     0.16100
C730        C  0.11225262  0.57562324  0.42965321     0.25500
C731        C  0.09050702  0.58075399  0.44969837    -0.40800
C732        C  0.08779970  0.60536640  0.43475264     0.32600
C733        C  0.15406475  0.64433408  0.35853710     0.01200
F734        F  0.15324359  0.59060473  0.38076079    -0.13100
F735        F  0.06711862  0.61135170  0.45209905    -0.13600
C736        C  0.18052054  0.66498132  0.37969411     0.16100
C737        C  0.20424394  0.68738292  0.35591409     0.25500
C738        C  0.20216789  0.68969955  0.30988850    -0.40700
C739        C  0.17524463  0.66899742  0.28874236     0.32500
C740        C  0.15140909  0.64654468  0.31295429     0.14200
F741        F  0.18342293  0.66332364  0.42380781    -0.13100
F742        F  0.17172032  0.67054092  0.24478134    -0.13600
F743        F  0.22943865  0.70641220  0.37831868    -0.15900
F744        F  0.12584010  0.62686059  0.29190891    -0.14500
F745        F  0.10515158  0.64927395  0.39092117    -0.14500
F746        F  0.11569421  0.55218088  0.44182749    -0.15900
C747        C  0.23096423  0.72544263  0.00389049     0.14200
C748        C  0.25707156  0.73170566  0.02722414     0.01200
C749        C  0.28297140  0.73791891  0.00367692     0.16100
C750        C  0.28278348  0.73804451  0.95774480     0.25500
C751        C  0.25652381  0.73130091  0.93454924    -0.40800
C752        C  0.23058515  0.72485946  0.95797755     0.32600
C753        C  0.25714869  0.73175395  0.07600338     0.01200
F754        F  0.30832502  0.74334609  0.02512438    -0.13100
F755        F  0.20518756  0.71915829  0.93640175    -0.13600
C756        C  0.23551996  0.70682810  0.09933303     0.16100
C757        C  0.23459770  0.70720754  0.14522621     0.25500
C758        C  0.25557983  0.73251157  0.16909710    -0.40700
C759        C  0.27782343  0.75721178  0.14541714     0.32500
C760        C  0.27842026  0.75683983  0.09948904     0.14200
F761        F  0.21534171  0.68184191  0.07757771    -0.13100
F762        F  0.29877904  0.78218410  0.16633115    -0.13600
F763        F  0.21313646  0.68254290  0.16602293    -0.15900
F764        F  0.29934973  0.78147979  0.07790895    -0.14500
F765        F  0.20600810  0.72067479  0.02559413    -0.14500
F766        F  0.30810645  0.74407867  0.93589799    -0.15900
C767        C  0.72826448  0.21351156  0.28497772     0.81700
N768        N  0.72978221  0.21247663  0.24040868    -0.76600
C769        C  0.75403904  0.23373419  0.21810479     0.84200
N770        N  0.77690004  0.25606855  0.24103504    -0.76500
C771        C  0.77562203  0.25756270  0.28538167     0.84300
N772        N  0.75126114  0.23629256  0.30689318    -0.78200
C773        C  0.73324742  0.21154916  0.81817727     0.81700
N774        N  0.73299166  0.21085559  0.86285447    -0.76600
C775        C  0.75642105  0.23221451  0.88621170     0.84200
N776        N  0.77998752  0.25456650  0.86475525    -0.76500
C777        C  0.78045179  0.25563960  0.82028068     0.84300
N778        N  0.75712888  0.23404340  0.79724708    -0.78200
C779        C  0.74538094  0.47854280  0.28734986     0.81700
N780        N  0.72115290  0.47586967  0.30888937    -0.76600
C781        C  0.69871874  0.47669673  0.28666969     0.84200
N782        N  0.70044211  0.47988117  0.24239949    -0.76500
C783        C  0.72438265  0.48233424  0.22028133     0.84300
N784        N  0.74695320  0.48187734  0.24295923    -0.78200
C785        C  0.75148418  0.48938703  0.82181771     0.81700
N786        N  0.75134895  0.48884935  0.86650951    -0.76600
C787        C  0.72982023  0.49097912  0.88936671     0.84200
N788        N  0.70838655  0.49358266  0.86704640    -0.76500
C789        C  0.70834914  0.49436125  0.82257490     0.84300
N790        N  0.72992708  0.49223339  0.80024320    -0.78200
C791        C  0.99333841  0.23976476  0.28922853     0.81700
N792        N  0.99761133  0.21870946  0.30951975    -0.76600
C793        C  0.99972222  0.19746156  0.28615582     0.84200
N794        N  0.99709128  0.19714950  0.24176349    -0.76500
C795        C  0.99300826  0.21817924  0.22080156     0.84300
N796        N  0.99127672  0.23957207  0.24467199    -0.78200
C797        C  0.96746835  0.22685434  0.82312110     0.81700
N798        N  0.96502470  0.20243543  0.80220170    -0.76600
C799        C  0.96575677  0.18006527  0.82501989     0.84200
N800        N  0.96918061  0.18246077  0.86937439    -0.76500
C801        C  0.97152616  0.20664006  0.89086352     0.84300
N802        N  0.97068098  0.22869943  0.86748667    -0.78200
O803        O  0.92074600  0.00375109  0.50475415    -0.86700
C804        C  0.57385912  0.06296242  0.61632018     1.13400
O805        O  0.95483219  0.47784018  0.55466595    -1.34500
O806        O  0.55267616  0.06775593  0.50434211    -0.88100
O807        O  0.89473764  0.45392611  0.50589966    -0.88800
O808        O  0.95346840  0.44536855  0.46258329    -0.77600
O809        O  0.98706572  0.03613118  0.51279925    -0.99700
C810        C  0.53795897  0.47391923  0.47437970     1.23400
O811        O  0.98470421  0.44524654  0.55545265    -1.34600
Mn812      Mn  0.98592068  0.47733477  0.60218598     1.82100
O813        O  0.51507653  0.47454744  0.46206620    -0.76700
O814        O  0.57560329  0.04082243  0.50071547    -0.86100
C815        C  0.54076918  0.47829795  0.63471106     1.14500
C816        C  0.57158432  0.06192264  0.48688441     1.09200
O817        O  0.95524008  0.44701661  0.64764457    -0.77600
O818        O  0.51697970  0.00782210  0.55385562    -1.31300
O819        O  0.92666373  0.41968898  0.59684638    -0.96900
C820        C  0.98321405  0.38783390  0.49440911     1.08000
Mn821      Mn  0.55885250  0.00938304  0.55223152     1.48600
O822        O  0.95833467  0.38448222  0.50753130    -0.86100
Mn823      Mn  0.91218043  0.43870373  0.55534199     1.49600
O824        O  0.92098178  0.00459914  0.60319325    -0.89900
C825        C  0.98737705  0.03167372  0.47358592     1.21100
C826        C  0.90059775  0.48007765  0.61909840     1.13200
Mn827      Mn  0.98515248  0.47641449  0.50701598     1.81000
O828        O  0.54420248  0.47683316  0.59549819    -0.95100
Mn829      Mn  0.95345479  0.01834051  0.55393304     1.49300
C830        C  0.89990876  0.47900756  0.49042753     1.09700
Mn831      Mn  0.52421249  0.44198635  0.55678406     1.49900
C832        C  0.98296037  0.38980185  0.62247650     1.12600
O833        O  0.92616193  0.41874324  0.51456881    -1.00900
O834        O  0.57844467  0.04307709  0.59947160    -0.90500
C835        C  0.93061357  0.42207268  0.47518953     1.23900
O836        O  0.54255226  0.47451148  0.51365877    -1.01300
O837        O  0.55303970  0.06755503  0.60321409    -0.88700
O838        O  0.50913655  0.41031359  0.60819741    -0.88300
O839        O  0.89539080  0.45480453  0.60447193    -0.88300
Mn840      Mn  0.52027817  0.05057236  0.55410124     1.47900
O841        O  0.51752659  0.47808908  0.64697108    -0.76800
C842        C  0.93155964  0.42422185  0.63603550     1.17000
O843        O  0.98640075  0.00790987  0.46173314    -0.75500
O844        O  0.98632152  0.00854559  0.64645933    -0.75100
Mn845      Mn  0.94432427  0.40354713  0.55608566     1.51100
O846        O  0.50847221  0.40807413  0.50972456    -0.87500
O847        O  0.98702483  0.03676178  0.59536626    -0.95000
O848        O  0.95863546  0.38557891  0.60547733    -0.90000
C849        C  0.98642625  0.03186168  0.63466051     1.14700
C850        C  0.95402228  0.12452269  0.73456761     0.14200
C851        C  0.96874700  0.10997021  0.75183878     0.01200
C852        C  0.97966488  0.11629663  0.79512539     0.16100
C853        C  0.97743802  0.13802972  0.81977068     0.25500
C854        C  0.96465025  0.15426953  0.80131029    -0.40800
C855        C  0.95216750  0.14654549  0.75882044     0.32600
C856        C  0.97454661  0.09001667  0.72340008     0.01200
F857        F  0.49049638  0.09982119  0.81483786    -0.13100
F858        F  0.93823975  0.16037988  0.74040892    -0.13600
C859        C  0.98899134  0.10071876  0.68286860     0.16100
C860        C  0.99345957  0.08201517  0.65465311     0.25500
C861        C  0.98412594  0.05224581  0.66664723    -0.40700
C862        C  0.97080868  0.04183987  0.70807029     0.32500
C863        C  0.96582683  0.06050149  0.73604049     0.14200
F864        F  0.99893294  0.12950270  0.67056271    -0.13100
F865        F  0.96136195  0.01322018  0.72072578    -0.13600
F866        F  0.50785642  0.09344051  0.61746504    -0.15900
F867        F  0.95150441  0.04937515  0.77472501    -0.14500
F868        F  0.94181607  0.11771925  0.69368379    -0.14500
F869        F  0.48568425  0.14134000  0.86271348    -0.15900
C870        C  0.98368932  0.30493708  0.79015849     0.14200
C871        C  0.97231161  0.30008634  0.74722162     0.01200
C872        C  0.46773047  0.27378514  0.72581858     0.16100
C873        C  0.46505084  0.24961252  0.75042682     0.25500
C874        C  0.96809661  0.25188562  0.79760046    -0.40800
C875        C  0.98149782  0.28110458  0.81525870     0.32600
C876        C  0.97560701  0.32531540  0.71977816     0.01200
F877        F  0.46384965  0.27095457  0.68159357    -0.13100
F878        F  0.99331207  0.28695519  0.85638327    -0.13600
C879        C  0.00385312  0.34697453  0.70433914     0.16100
C880        C  0.00658393  0.36881831  0.67420012     0.25500
C881        C  0.98095734  0.36930262  0.65876768    -0.40700
C882        C  0.95279466  0.34832023  0.67643098     0.32500
C883        C  0.95025103  0.32663388  0.70648148     0.14200
F884        F  0.02869048  0.34607122  0.71689424    -0.13100
F885        F  0.92735845  0.34802590  0.66385928    -0.13600
F886        F  0.03421822  0.38860686  0.65889875    -0.15900
F887        F  0.92281418  0.30641336  0.72199772    -0.14500
F888        F  0.99695034  0.33282957  0.80777730    -0.14500
F889        F  0.45851417  0.22408622  0.72871622    -0.15900
C890        C  0.51047666  0.08408035  0.37584959     0.14200
C891        C  0.99974005  0.10280115  0.38705738     0.01200
C892        C  0.98326684  0.09717874  0.42598723     0.16100
C893        C  0.97873932  0.07361182  0.45337767     0.25500
C894        C  0.99016329  0.05475432  0.44210926    -0.40800
C895        C  0.50573563  0.06009016  0.40300856     0.32600
C896        C  0.00408210  0.12795299  0.35854150     0.01200
F897        F  0.97126456  0.11444484  0.43736339    -0.13100
F898        F  0.51825537  0.04323309  0.39205217    -0.13600
C899        C  0.99271268  0.12255434  0.31551328     0.16100
C900        C  0.99248157  0.14546261  0.29103160     0.25500
C901        C  0.00341628  0.17415958  0.30941452    -0.40700
C902        C  0.51502332  0.17967427  0.35234899     0.32500
C903        C  0.51531468  0.15677032  0.37657645     0.14200
F904        F  0.98010490  0.09460943  0.29818284    -0.13100
F905        F  0.52661542  0.20717709  0.37096375    -0.13600
F906        F  0.97988533  0.13893982  0.25042402    -0.15900
F907        F  0.52696601  0.16266963  0.41782983    -0.11500
F908        F  0.52733649  0.08983208  0.33912539    -0.14500
F909        F  0.96307623  0.06924624  0.49107509    -0.15900
C910        C  0.01107398  0.35289201  0.41026807     0.14200
C911        C  0.98455058  0.32690942  0.39837021     0.01200
C912        C  0.95732972  0.32171492  0.41640631     0.16100
C913        C  0.95669425  0.34172000  0.44680413     0.25500
C914        C  0.98339041  0.36754398  0.45973737    -0.40800
C915        C  0.01055979  0.37304637  0.44041310     0.32600
C916        C  0.98558090  0.30441609  0.36923721     0.01200
F917        F  0.93128987  0.29698457  0.40489822    -0.13100
F918        F  0.53712081  0.39769746  0.45092354    -0.13600
C919        C  0.47469841  0.27563867  0.38370994     0.16100
C920        C  0.47684573  0.25453775  0.35762258     0.25500
C921        C  0.99006959  0.26196006  0.31600307    -0.40700
C922        C  0.00016609  0.29120584  0.30046608     0.32500
C923        C  0.99800482  0.31226455  0.32693594     0.14200
F924        F  0.46312621  0.26771320  0.42474970    -0.13100
F925        F  0.01304232  0.29974880  0.26029601    -0.13600
F926        F  0.46614815  0.22643411  0.37371580    -0.15900
F927        F  0.00810201  0.34037972  0.31131031    -0.14500
F928        F  0.53759590  0.35833732  0.39317606    -0.14500
F929        F  0.92996003  0.33514563  0.46445257    -0.15900
C930        C  0.50065933  0.24266599  0.10148223     0.14200
C931        C  0.98490784  0.21500238  0.08002118     0.01200
C932        C  0.97168734  0.18848853  0.10481485     0.16100
C933        C  0.97420381  0.18956534  0.15057955     0.25500
C934        C  0.98984860  0.21723422  0.17245112    -0.40800
C935        C  0.50296501  0.24383543  0.14735642     0.32600
C936        C  0.98230291  0.21364859  0.03151963     0.01200
F937        F  0.95582084  0.16152436  0.08466999    -0.13100
F938        F  0.51887563  0.27085166  0.16731384    -0.13600
C939        C  0.49326911  0.19803292  0.00691133     0.16100
C940        C  0.48986988  0.19577667  0.96124159     0.25500
C941        C  0.97546211  0.20923073  0.93924707    -0.40700
C942        C  0.96469563  0.22501275  0.96388202     0.32500
C943        C  0.96804180  0.22712097  0.00956747     0.14200
F944        F  0.50766956  0.18533419  0.02734663    -0.13100
F945        F  0.95008606  0.23767394  0.94398905    -0.13600
F946        F  0.50138979  0.18114037  0.93872463    -0.15900
F947        F  0.95658671  0.24163404  0.03257057    -0.14500
F948        F  0.51438544  0.26852472  0.07809568    -0.14500
F949        F  0.96060802  0.16353164  0.17357229    -0.15900
C950        C  0.83790322  0.45513999  0.70304280     0.14200
C951        C  0.84197310  0.48261265  0.71816153     0.01200
C952        C  0.86669388  0.50924673  0.70347846     0.16100
C953        C  0.88630222  0.50851038  0.67242321     0.25500
C954        C  0.88155759  0.48094122  0.65537084    -0.40800
C955        C  0.85746962  0.45422214  0.67219534     0.32600
C956        C  0.81885127  0.48347951  0.74583576     0.01200
F957        F  0.87100581  0.53609858  0.71760210    -0.13100
F958        F  0.85209525  0.42703249  0.65802675    -0.13600
C959        C  0.82504343  0.99408026  0.78909590     0.16100
C960        C  0.80304758  0.99545268  0.81436075     0.25500
C961        C  0.77457942  0.48663577  0.79639721    -0.40700
C962        C  0.76843083  0.47544251  0.75308294     0.32500
C963        C  0.79031566  0.47387803  0.72821803     0.14200
F964        F  0.85238845  0.00307763  0.80695578    -0.13100
F965        F  0.74107916  0.46564826  0.73467426    -0.13600
F966        F  0.80995054  0.00623344  0.85596586    -0.15900
F967        F  0.78382493  0.46351192  0.68634707    -0.14500
F968        F  0.81443114  0.42908688  0.71751352    -0.14500
F969        F  0.90932409  0.53495254  0.65820698    -0.15900
C970        C  0.66693744  0.50985908  0.73270804     0.14200
C971        C  0.63758210  0.49540925  0.74912994     0.01200
C972        C  0.63209244  0.48279256  0.79136972     0.16100
C973        C  0.65533910  0.48347815  0.81605562     0.25500
C974        C  0.68441680  0.49635703  0.79854429    -0.40800
C975        C  0.69008111  0.51006478  0.75695594     0.32600
C976        C  0.61241503  0.49102084  0.72059484     0.01200
F977        F  0.60388415  0.46826249  0.80774359    -0.13100
F978        F  0.71801919  0.52360174  0.73959822    -0.13600
C979        C  0.60845924  0.47703721  0.67965356     0.16100
C980        C  0.58482240  0.47241473  0.65235526     0.25500
C981        C  0.56424376  0.48128863  0.66563749    -0.40700
C982        C  0.56789952  0.99483018  0.70692672     0.32500
C983        C  0.59194040  0.99982509  0.73410164     0.14200
F984        F  0.62733995  0.46740618  0.66623802    -0.13100
F985        F  0.54882312  0.00416716  0.72044879    -0.13600
F986        F  0.58206574  0.45906008  0.61284882    -0.15900
F987        F  0.59555722  0.01385173  0.77320694    -0.14500
F988        F  0.67307130  0.52328221  0.69267661    -0.14500
F989        F  0.64892885  0.46996989  0.85601131    -0.15900
C990        C  0.84046058  0.45260580  0.40090566     0.14200
C991        C  0.83910358  0.47868837  0.39235467     0.01200
C992        C  0.85908374  0.50533483  0.41393032     0.16100
C993        C  0.87944018  0.50571386  0.44478709     0.25500
C994        C  0.88020353  0.47930209  0.45476814    -0.40800
C995        C  0.86079149  0.45285117  0.43168225     0.32600
C996        C  0.81532581  0.47757946  0.36364459     0.01200
F997        F  0.85786239  0.53072940  0.40673126    -0.13100
F998        F  0.86112160  0.42701534  0.43909920    -0.13600
C999        C  0.78520696  0.45940368  0.37538053     0.16100
C1000       C  0.76254340  0.45936694  0.35008970     0.25500
C1001       C  0.76952646  0.47749193  0.31238633    -0.40700
C1002       C  0.79970629  0.49517914  0.30000842     0.32500
C1003       C  0.82243464  0.49535184  0.32564117     0.14200
F1004       F  0.77765250  0.94223158  0.41224062    -0.13100
F1005       F  0.80730975  0.51314187  0.26409147    -0.13600
F1006       F  0.73359665  0.94140188  0.36249081    -0.15900
F1007       F  0.85140440  0.51296844  0.31352655    -0.14500
F1008       F  0.82171964  0.42670597  0.37977646    -0.14500
F1009       F  0.89739610  0.53173006  0.46620754    -0.15900
C1010       C  0.57232797  0.46030169  0.37310040     0.14200
C1011       C  0.60211579  0.47205722  0.38697610     0.01200
C1012       C  0.61068518  0.48482094  0.42880308     0.16100
C1013       C  0.58976956  0.48544351  0.45686065     0.25500
C1014       C  0.55979934  0.47368065  0.44336886    -0.40800
C1015       C  0.55124326  0.46117947  0.40111169     0.32600
C1016       C  0.62463770  0.47097757  0.35857750     0.01200
F1017       F  0.63954230  0.49695576  0.44236228    -0.13100
F1018       F  0.52237071  0.44882589  0.38762158    -0.13600
C1019       C  0.63520284  0.48915342  0.32110123     0.16100
C1020       C  0.65900055  0.49064533  0.29711045     0.25500
C1021       C  0.67264068  0.47407028  0.31053615    -0.40700
C1022       C  0.66154492  0.45543152  0.34765327     0.32500
C1023       C  0.63770461  0.45387828  0.37139647     0.14200
F1024       F  0.62331479  0.00649821  0.30890559    -0.13100
F1025       F  0.67365211  0.43856176  0.36086421    -0.13600
F1026       F  0.66961978  0.00946905  0.26206396    -0.15900
F1027       F  0.62759451  0.43601024  0.40742833    -0.14500
F1028       F  0.56358991  0.44733372  0.33296639    -0.14500
F1029       F  0.59909749  0.49808128  0.49711921    -0.15900
C1030       C  0.69915301  0.47097679  0.10139072     0.14200
C1031       C  0.72651558  0.48696773  0.07928302     0.01200
C1032       C  0.75316570  0.50190472  0.10361530     0.16100
C1033       C  0.75254785  0.50056411  0.14949444     0.25500
C1034       C  0.72518296  0.48434115  0.17179433    -0.40800
C1035       C  0.69844715  0.46969042  0.14723921     0.32600
C1036       C  0.72731689  0.48793856  0.03079711     0.01200
F1037       F  0.77976693  0.51819873  0.08284236    -0.13100
F1038       F  0.67164508  0.45326878  0.16746909    -0.13600
C1039       C  0.71323304  0.00096850  0.00756812     0.16100
C1040       C  0.71418591  0.00211687  0.96172347     0.25500
C1041       C  0.72926691  0.49014646  0.93812498    -0.40700
C1042       C  0.74336594  0.47698368  0.96169464     0.32500
C1043       C  0.74236417  0.47591614  0.00758464     0.14200
F1044       F  0.69895303  0.01315398  0.02942698    -0.13100
F1045       F  0.75748027  0.46439844  0.94047173    -0.13600
F1046       F  0.70079004  0.01561933  0.94067900    -0.15900
F1047       F  0.75556799  0.46253399  0.02945532    -0.14500
F1048       F  0.67315368  0.45598070  0.07848307    -0.14500
F1049       F  0.77865376  0.51572129  0.17206596    -0.15900
C1050       C  0.90021735  0.37501053  0.73676951     0.14200
C1051       C  0.87066469  0.35561873  0.72310196     0.01200
C1052       C  0.86075031  0.36047526  0.68261726     0.16100
C1053       C  0.88037672  0.38347512  0.65513473     0.25500
C1054       C  0.91034017  0.40237699  0.66783374    -0.40800
C1055       C  0.91995656  0.39838578  0.70937022     0.32600
C1056       C  0.84995655  0.32982792  0.75019406     0.01200
F1057       F  0.83196130  0.34267748  0.66952911    -0.13100
F1058       F  0.94880004  0.41589866  0.72235710    -0.13600
C1059       C  0.84071699  0.33429386  0.79136698     0.16100
C1060       C  0.81865326  0.31000420  0.81479693     0.25500
C1061       C  0.80537450  0.28089826  0.79716299    -0.40700
C1062       C  0.81529088  0.27641850  0.75641075     0.32500
C1063       C  0.83753597  0.30068755  0.73325973     0.14200
F1064       F  0.85198895  0.36235064  0.80783143    -0.13100
F1065       F  0.80348919  0.24855393  0.73899297    -0.13600
F1066       F  0.80912237  0.31521488  0.85355836    -0.15900
F1067       F  0.84672213  0.29586018  0.69390178    -0.14500
F1068       F  0.91025784  0.37048266  0.77571938    -0.14500
F1069       F  0.87003119  0.38703900  0.61578508    -0.15900
C1070       C  0.66401019  0.13835024  0.78571478     0.14200
C1071       C  0.65999720  0.14421458  0.74197138     0.01200
C1072       C  0.67969492  0.17214833  0.72352139     0.16100
C1073       C  0.70330255  0.19398739  0.74824709     0.25500
C1074       C  0.70768739  0.18835135  0.79228235    -0.40800
C1075       C  0.68754529  0.16025583  0.81081728     0.32600
C1076       C  0.63574953  0.12123915  0.71467126     0.01200
F1077       F  0.67630092  0.17808936  0.68106333    -0.13100
F1078       F  0.69088178  0.15362522  0.85289991    -0.13600
C1079       C  0.61247963  0.12568608  0.69985492     0.16100
C1080       C  0.59172795  0.10621808  0.66916813     0.25500
C1081       C  0.59408463  0.08197013  0.65221511    -0.40700
C1082       C  0.61682407  0.07688771  0.66893444     0.32500
C1083       C  0.63735448  0.09633195  0.69992610     0.14200
F1084       F  0.61032478  0.14943390  0.71440637    -0.13100
F1085       F  0.61993395  0.05366526  0.65452148    -0.13600
F1086       F  0.56997103  0.11184951  0.65520512    -0.15900
F1087       F  0.65974338  0.09167005  0.71396083    -0.14500
F1088       F  0.64503921  0.11143575  0.80411375    -0.14500
F1089       F  0.72159972  0.22076270  0.72893387    -0.15900
C1090       C  0.81598659  0.31748073  0.37126162     0.14200
C1091       C  0.84613480  0.32871072  0.36003676     0.01200
C1092       C  0.85311617  0.31692255  0.32324219     0.16100
C1093       C  0.83022297  0.29406172  0.29832554     0.25500
C1094       C  0.80004032  0.28241337  0.31024586    -0.40800
C1095       C  0.79322125  0.29447508  0.34688182     0.32600
C1096       C  0.86987766  0.35202140  0.38800739     0.01200
F1097       F  0.88207695  0.32683603  0.31235976    -0.13100
F1098       F  0.76438085  0.28438837  0.35869569    -0.13600
C1099       C  0.87059073  0.34655223  0.43302124     0.16100
C1100       C  0.89034355  0.36925347  0.46098567     0.25500
C1101       C  0.91033003  0.39805634  0.44448831    -0.40700
C1102       C  0.91063481  0.40312128  0.39894225     0.32500
C1103       C  0.89045959  0.38029003  0.37096060     0.14200
F1104       F  0.85185109  0.31907400  0.45006462    -0.13100
F1105       F  0.92976555  0.43035362  0.38161857    -0.13600
F1106       F  0.88987511  0.36278565  0.50435601    -0.15900
F1107       F  0.89025269  0.38612553  0.32750352    -0.14500
F1108       F  0.80856109  0.32900540  0.40591540    -0.14500
F1109       F  0.83761032  0.28253645  0.26364581    -0.15900
C1110       C  0.60725990  0.12558132  0.40317811     0.14200
C1111       C  0.62951217  0.12089778  0.38491911     0.01200
C1112       C  0.63109839  0.09549158  0.39723356     0.16100
C1113       C  0.61167530  0.07574422  0.42903193     0.25500
C1114       C  0.59018630  0.08108167  0.44950151    -0.40800
C1115       C  0.58772211  0.10591329  0.43499441     0.32600
C1116       C  0.65384918  0.14468011  0.35852487     0.01200
F1117       F  0.65245148  0.09053949  0.37977442    -0.13100
F1118       F  0.56724130  0.11205822  0.45268571    -0.13600
C1119       C  0.67982277  0.16599335  0.37997454     0.16100
C1120       C  0.70365636  0.18831265  0.35625498     0.25500
C1121       C  0.70216627  0.18989300  0.30998498    -0.40700
C1122       C  0.67567419  0.16852658  0.28855681     0.32500
C1123       C  0.65176358  0.14612862  0.31270382     0.14200
F1124       F  0.68218338  0.16501563  0.42431462    -0.13100
F1125       F  0.67264940  0.16928318  0.24433993    -0.13600
F1126       F  0.72834976  0.20802239  0.37902770    -0.15900
F1127       F  0.62665845  0.12577372  0.29136926    -0.14500
F1128       F  0.60539606  0.15008451  0.39168602    -0.14500
F1129       F  0.61483146  0.05205325  0.44072357    -0.15900
C1130       C  0.73058533  0.22616969  0.00376582     0.14200
C1131       C  0.75664493  0.23249551  0.02727624     0.01200
C1132       C  0.78257914  0.23859709  0.00393450     0.16100
C1133       C  0.78246764  0.23850662  0.95801179     0.25500
C1134       C  0.75625835  0.23169184  0.93462067    -0.40800
C1135       C  0.73028902  0.22540600  0.95785480     0.32600
C1136       C  0.75662302  0.23256428  0.07603695     0.01200
F1137       F  0.80788397  0.24408754  0.02558939    -0.13100
F1138       F  0.70493934  0.21965165  0.93608651    -0.13600
C1139       C  0.73510711  0.20753902  0.09930705     0.16100
C1140       C  0.73432418  0.20777236  0.14521064     0.25500
C1141       C  0.75530783  0.23304210  0.16913394    -0.40700
C1142       C  0.77733780  0.25791533  0.14549697     0.32500
C1143       C  0.77782218  0.25767143  0.09955844     0.14200
F1144       F  0.71496467  0.18256747  0.07748867    -0.13100
F1145       F  0.79820030  0.28290817  0.16647973    -0.13600
F1146       F  0.71305312  0.18296796  0.16596994    -0.15900
F1147       F  0.79860909  0.28241202  0.07800495    -0.14500
F1148       F  0.70559252  0.22147075  0.02528985    -0.14500
F1149       F  0.80781381  0.24437890  0.93637546    -0.15900
C1150       C  0.72811458  0.71361112  0.28495458     0.81700
N1151       N  0.72963398  0.71255261  0.24039230    -0.76600
C1152       C  0.75388108  0.73381953  0.21808411     0.84200
N1153       N  0.77672491  0.75617696  0.24101104    -0.76500
C1154       C  0.77543339  0.75769549  0.28534964     0.84300
N1155       N  0.75108313  0.73642340  0.30687358    -0.78200
C1156       C  0.73327930  0.71152503  0.81820675     0.81700
N1157       N  0.73306640  0.71080835  0.86287770    -0.76600
C1158       C  0.75650844  0.73216971  0.88620790     0.84200
N1159       N  0.78004694  0.75454239  0.86472715    -0.76500
C1160       C  0.78046557  0.75562614  0.82024884     0.84300
N1161       N  0.75712574  0.73403173  0.79723977    -0.78200
C1162       C  0.74532594  0.97855782  0.28737109     0.81700
N1163       N  0.72108133  0.97587779  0.30887209    -0.76600
C1164       C  0.69865914  0.97670354  0.28661154     0.84200
N1165       N  0.70040994  0.97989071  0.24234244    -0.76500
C1166       C  0.72436459  0.98234709  0.22026227     0.84300
N1167       N  0.74692225  0.98189203  0.24297956    -0.78200
C1168       C  0.75147795  0.98930980  0.82178529     0.81700
N1169       N  0.75132921  0.98873773  0.86647788    -0.76600
C1170       C  0.72980279  0.99086873  0.88934302     0.84200
N1171       N  0.70837942  0.99349929  0.86703354    -0.76500
C1172       C  0.70835838  0.99431165  0.82256277     0.84300
N1173       N  0.72993750  0.99219182  0.80022655    -0.78200
C1174       C  0.99330862  0.73988278  0.28907170     0.81700
N1175       N  0.99746945  0.71879653  0.30948789    -0.76600
C1176       C  0.99959115  0.69751545  0.28623531     0.84200
N1177       N  0.99707627  0.69719956  0.24182398    -0.76500
C1178       C  0.99309899  0.71825760  0.22074183     0.84300
N1179       N  0.99136405  0.73968883  0.24450418    -0.78200
C1180       C  0.96739859  0.72681233  0.82312303     0.81700
N1181       N  0.96489920  0.70236846  0.80220241    -0.76600
C1182       C  0.96564534  0.68000183  0.82501335     0.84200
N1183       N  0.96914323  0.68242794  0.86935477    -0.76500
C1184       C  0.97154856  0.70663046  0.89084104     0.84300
N1185       N  0.97068406  0.72868279  0.86747813    -0.78200
O1186       O  0.92076200  0.50384166  0.50488765    -0.86700
C1187       C  0.57387919  0.56294943  0.61637761     1.13400
O1188       O  0.95483660  0.97779541  0.55459586    -1.34500
O1189       O  0.55275674  0.56770879  0.50425313    -0.88100
O1190       O  0.89472090  0.95383677  0.50582472    -0.88800
O1191       O  0.95350888  0.94531268  0.46253288    -0.77600
O1192       O  0.98707500  0.53618177  0.51291722    -0.99700
C1193       C  0.53790318  0.97393841  0.47425529     1.23400
O1194       O  0.98474248  0.94523880  0.55544529    -1.34600
Mn1195     Mn  0.98592966  0.97732391  0.60214783     1.82100
O1196       O  0.51499713  0.97453121  0.46198404    -0.76700
O1197       O  0.57568264  0.54076130  0.50095083    -0.86100
C1198       C  0.54087160  0.97838004  0.63458117     1.14500
C1199       C  0.57169041  0.56184181  0.48695898     1.09200
O1200       O  0.95525060  0.94698660  0.64759855    -0.77600
O1201       O  0.51700856  0.50781962  0.55388993    -1.31300
O1202       O  0.92668410  0.91964133  0.59679423    -0.96900
C1203       C  0.98332771  0.88789107  0.49438278     1.08000
Mn1204     Mn  0.55885318  0.50931609  0.55240740     1.48600
O1205       O  0.95843449  0.88453184  0.50745143    -0.86100
Mn1206     Mn  0.91219131  0.93864592  0.55527847     1.49600
O1207       O  0.92101696  0.50466297  0.60332834    -0.89900
C1208       C  0.98736140  0.53173513  0.47369916     1.21100
C1209       C  0.90057263  0.98001317  0.61898306     1.13200
Mn1210     Mn  0.98517736  0.97637562  0.50697555     1.81000
O1211       O  0.54427949  0.97690962  0.59535590    -0.95100
Mn1212     Mn  0.95347522  0.51839966  0.55405526     1.49300
C1213       C  0.89988301  0.97890904  0.49032835     1.09700
Mn1214     Mn  0.52427868  0.94204947  0.55664033     1.49900
C1215       C  0.98299618  0.88982372  0.62251703     1.12600
O1216       O  0.92620092  0.91871140  0.51452168    -1.00900
O1217       O  0.57841901  0.54299460  0.59967682    -0.90500
C1218       C  0.93064273  0.92202986  0.47514277     1.23900
O1219       O  0.54252991  0.97456750  0.51352171    -1.01300
O1220       O  0.55311999  0.56758986  0.60313272    -0.88700
O1221       O  0.50930191  0.91037240  0.60802025    -0.88300
O1222       O  0.89538683  0.95473981  0.60439003    -0.88300
Mn1223     Mn  0.52035348  0.55059126  0.55404762     1.47900
O1224       O  0.51761724  0.97813237  0.64689536    -0.76800
C1225       C  0.93158036  0.92417929  0.63598333     1.17000
O1226       O  0.98638071  0.50797536  0.46180816    -0.75500
O1227       O  0.98634084  0.50855294  0.64653525    -0.75100
Mn1228     Mn  0.94437672  0.90353253  0.55603077     1.51100
O1229       O  0.50852550  0.90814749  0.50954340    -0.87500
O1230       O  0.98705240  0.53679088  0.59547237    -0.95000
O1231       O  0.95868948  0.88557095  0.60541383    -0.90000
C1232       C  0.98644434  0.53187186  0.63475947     1.14700
C1233       C  0.95384008  0.62441588  0.73458787     0.14200
C1234       C  0.96854751  0.60985114  0.75187298     0.01200
C1235       C  0.97946409  0.61617382  0.79515489     0.16100
C1236       C  0.97726829  0.63792843  0.81978301     0.25500
C1237       C  0.96449762  0.65418318  0.80131482    -0.40800
C1238       C  0.95199868  0.64645022  0.75883397     0.32600
C1239       C  0.97437228  0.58991719  0.72344253     0.01200
F1240       F  0.48985050  0.59934406  0.81496719    -0.13100
F1241       F  0.93807787  0.66029162  0.74042333    -0.13600
C1242       C  0.98894468  0.60067927  0.68301398     0.16100
C1243       C  0.99349240  0.58201421  0.65482999     0.25500
C1244       C  0.98409283  0.55221893  0.66675258    -0.40700
C1245       C  0.97062838  0.54174462  0.70807347     0.32500
C1246       C  0.96558346  0.56037556  0.73601724     0.14200
F1247       F  0.99893737  0.62948665  0.67078292    -0.13100
F1248       F  0.96109596  0.51309147  0.72063681    -0.13600
F1249       F  0.50787577  0.59349762  0.61769437    -0.15900
F1250       F  0.95113884  0.54919970  0.77460695    -0.14500
F1251       F  0.94165060  0.61762090  0.69369342    -0.14500
F1252       F  0.48492245  0.64078326  0.86285622    -0.15900
C1253       C  0.98354988  0.80489495  0.79026725     0.14200
C1254       C  0.97225130  0.80008002  0.74728533     0.01200
C1255       C  0.47108034  0.77487887  0.72512771     0.16100
C1256       C  0.46815611  0.75058709  0.74967781     0.25500
C1257       C  0.96802413  0.75185159  0.79761841    -0.40800
C1258       C  0.98135477  0.78105176  0.81534180     0.32600
C1259       C  0.97554712  0.82532493  0.71987145     0.01200
F1260       F  0.47001378  0.77312321  0.68060027    -0.13100
F1261       F  0.99308983  0.78687629  0.85651429    -0.13600
C1262       C  0.00382618  0.84714239  0.70475527     0.16100
C1263       C  0.00657969  0.86899234  0.67460770     0.25500
C1264       C  0.98094548  0.86932459  0.65884243    -0.40700
C1265       C  0.95273784  0.84819819  0.67622003     0.32500
C1266       C  0.95017232  0.82650728  0.70627520     0.14200
F1267       F  0.02868811  0.84639241  0.71763063    -0.13100
F1268       F  0.92728289  0.84776329  0.66335948    -0.13600
F1269       F  0.03425644  0.88895057  0.65964162    -0.15900
F1270       F  0.92269720  0.80614816  0.72150001    -0.14500
F1271       F  0.99673036  0.83276301  0.80796269    -0.14500
F1272       F  0.46447959  0.72613623  0.72755806    -0.15900
C1273       C  0.50995343  0.58386616  0.37557081     0.14200
C1274       C  0.99956437  0.60286696  0.38731067     0.01200
C1275       C  0.98303807  0.59714754  0.42620499     0.16100
C1276       C  0.97857246  0.57358370  0.45355658     0.25500
C1277       C  0.99009225  0.55481178  0.44226330    -0.40800
C1278       C  0.50530982  0.55990329  0.40272042     0.32600
C1279       C  0.00385553  0.62801887  0.35883349     0.01200
F1280       F  0.97092608  0.61431466  0.43758987    -0.13100
F1281       F  0.51768129  0.54295553  0.39150920    -0.13600
C1282       C  0.99263346  0.62264439  0.31572215     0.16100
C1283       C  0.99241346  0.64554223  0.29120097     0.25500
C1284       C  0.00321070  0.67420813  0.30962056    -0.40700
C1285       C  0.51465069  0.67958135  0.35232204     0.32500
C1286       C  0.51491725  0.65666657  0.37655827     0.14200
F1287       F  0.98017093  0.59472842  0.29832095    -0.13100
F1288       F  0.52626164  0.70708857  0.37092973    -0.13600
F1289       F  0.97997741  0.63903824  0.25048864    -0.15900
F1290       F  0.52660254  0.66257755  0.41779127    -0.11500
F1291       F  0.52659934  0.58951044  0.33863736    -0.14500
F1292       F  0.96288021  0.56914093  0.49124323    -0.15900
C1293       C  0.01128457  0.85284707  0.41054371     0.14200
C1294       C  0.98468700  0.82717273  0.39799265     0.01200
C1295       C  0.95741777  0.82224014  0.41546172     0.16100
C1296       C  0.95678801  0.84218307  0.44597534     0.25500
C1297       C  0.98354630  0.86768071  0.45960818    -0.40800
C1298       C  0.01078579  0.87294187  0.44081914     0.32600
C1299       C  0.98565653  0.80465900  0.36885973     0.01200
F1300       F  0.93132032  0.79781123  0.40329460    -0.13100
F1301       F  0.53716138  0.89758961  0.45095394    -0.13600
C1302       C  0.47450884  0.77572918  0.38330842     0.16100
C1303       C  0.47664611  0.75460593  0.35726218     0.25500
C1304       C  0.99004605  0.76211945  0.31572736    -0.40700
C1305       C  0.00046023  0.79144453  0.30029730     0.32500
C1306       C  0.99836367  0.81255461  0.32673452     0.14200
F1307       F  0.46289622  0.76782001  0.42432889    -0.13100
F1308       F  0.01359597  0.80000690  0.26029359    -0.13600
F1309       F  0.46590394  0.72650210  0.37338008    -0.15900
F1310       F  0.00881137  0.84076368  0.31126962    -0.14500
F1311       F  0.53754036  0.85829115  0.39298405    -0.14500
F1312       F  0.92997374  0.83586689  0.46301573    -0.15900
C1313       C  0.50077790  0.74258663  0.10122057     0.14200
C1314       C  0.98518837  0.71505762  0.07994458     0.01200
C1315       C  0.97190967  0.68854777  0.10474518     0.16100
C1316       C  0.97438243  0.68962998  0.15051506     0.25500
C1317       C  0.99004484  0.71730068  0.17237800    -0.40800
C1318       C  0.50307701  0.74378192  0.14709525     0.32600
C1319       C  0.98254593  0.71370515  0.03145220     0.01200
F1320       F  0.95600977  0.66158653  0.08460401    -0.13100
F1321       F  0.51907953  0.77079960  0.16701733    -0.13600
C1322       C  0.49323565  0.69793698  0.00666680     0.16100
C1323       C  0.48979234  0.69567096  0.96100304     0.25500
C1324       C  0.97557249  0.70925368  0.93920636    -0.40700
C1325       C  0.96485479  0.72505678  0.96389119     0.32500
C1326       C  0.96826729  0.72718242  0.00956359     0.14200
F1327       F  0.50766042  0.68524927  0.02706146    -0.13100
F1328       F  0.95022372  0.73771766  0.94406164    -0.13600
F1329       F  0.50130413  0.68104519  0.93843796    -0.15900
F1330       F  0.95685419  0.74171234  0.03262165    -0.14500
F1331       F  0.51458718  0.76842120  0.07778886    -0.14500
F1332       F  0.96070968  0.66360374  0.17351938    -0.15900
C1333       C  0.83781432  0.95508187  0.70281660     0.14200
C1334       C  0.84195168  0.98255480  0.71804798     0.01200
C1335       C  0.86672123  0.00918080  0.70345386     0.16100
C1336       C  0.88632359  0.00844057  0.67239123     0.25500
C1337       C  0.88152205  0.98087399  0.65524044    -0.40800
C1338       C  0.85737020  0.95415777  0.67195756     0.32600
C1339       C  0.81884193  0.98343691  0.74572723     0.01200
F1340       F  0.87109006  0.03603355  0.71767825    -0.13100
F1341       F  0.85191639  0.92696920  0.65766027    -0.13600
C1342       C  0.82510508  0.49430863  0.78910891     0.16100
C1343       C  0.80310821  0.49569231  0.81435154     0.25500
C1344       C  0.77457325  0.98656861  0.79633515    -0.40700
C1345       C  0.76847980  0.97556083  0.75291606     0.32500
C1346       C  0.79036365  0.97401082  0.72802958     0.14200
F1347       F  0.85250517  0.50348215  0.80689471    -0.13100
F1348       F  0.74118389  0.96593362  0.73441423    -0.13600
F1349       F  0.81006018  0.50665984  0.85585589    -0.15900
F1350       F  0.78392661  0.96382273  0.68606765    -0.14500
F1351       F  0.81428154  0.92903515  0.71718058    -0.14500
F1352       F  0.90940156  0.03487662  0.65827014    -0.15900
C1353       C  0.66705330  0.00998674  0.73273753     0.14200
C1354       C  0.63766886  0.99545929  0.74904567     0.01200
C1355       C  0.63211842  0.98272275  0.79121040     0.16100
C1356       C  0.65533790  0.98337633  0.81593091     0.25500
C1357       C  0.68444902  0.99634265  0.79852535    -0.40800
C1358       C  0.69017148  0.01016201  0.75701674     0.32600
C1359       C  0.61253908  0.99112456  0.72046311     0.01200
F1360       F  0.60388021  0.96810959  0.80746864    -0.13100
F1361       F  0.71814220  0.02377876  0.73976941    -0.13600
C1362       C  0.60865674  0.97725090  0.67944470     0.16100
C1363       C  0.58502740  0.97263846  0.65213287     0.25500
C1364       C  0.56438521  0.98141599  0.66547321    -0.40700
C1365       C  0.56780990  0.49478378  0.70703554     0.32500
C1366       C  0.59186302  0.49979369  0.73419360     0.14200
F1367       F  0.62759193  0.96770181  0.66597448    -0.13100
F1368       F  0.54878946  0.50420664  0.72049579    -0.13600
F1369       F  0.58233289  0.95937375  0.61256646    -0.15900
F1370       F  0.59554887  0.51392174  0.77322484    -0.14500
F1371       F  0.67324414  0.02351940  0.69278509    -0.14500
F1372       F  0.64887584  0.96975331  0.85580203    -0.15900
C1373       C  0.84033813  0.95248080  0.40092781     0.14200
C1374       C  0.83900394  0.97857472  0.39235822     0.01200
C1375       C  0.85902267  0.00522699  0.41388614     0.16100
C1376       C  0.87940041  0.00560675  0.44470183     0.25500
C1377       C  0.88015018  0.97918996  0.45469676    -0.40800
C1378       C  0.86069172  0.95272667  0.43166788     0.32600
C1379       C  0.81522983  0.97748928  0.36365791     0.01200
F1380       F  0.85782299  0.03063198  0.40667713    -0.13100
F1381       F  0.86100090  0.92688186  0.43910506    -0.13600
C1382       C  0.78510782  0.95935467  0.37541192     0.16100
C1383       C  0.76245716  0.95936571  0.35014354     0.25500
C1384       C  0.76945563  0.97749147  0.31243716    -0.40700
C1385       C  0.79963805  0.99514363  0.30005091     0.32500
C1386       C  0.82235245  0.99527003  0.32566061     0.14200
F1387       F  0.77776568  0.44228539  0.41221315    -0.13100
F1388       F  0.80726037  0.01311742  0.26414436    -0.13600
F1389       F  0.73368581  0.44136060  0.36241443    -0.15900
F1390       F  0.85132399  0.01285100  0.31352912    -0.14500
F1391       F  0.82155983  0.92657321  0.37984467    -0.14500
F1392       F  0.89739539  0.03163433  0.46607068    -0.15900
C1393       C  0.57219529  0.96026949  0.37292586     0.14200
C1394       C  0.60198064  0.97198313  0.38678990     0.01200
C1395       C  0.61056709  0.98471764  0.42862926     0.16100
C1396       C  0.58967345  0.98535716  0.45671069     0.25500
C1397       C  0.55971032  0.97365434  0.44322449    -0.40800
C1398       C  0.55113271  0.96116965  0.40096121     0.32600
C1399       C  0.62448939  0.97089429  0.35837421     0.01200
F1400       F  0.63942603  0.99682774  0.44216820    -0.13100
F1401       F  0.52226178  0.94886140  0.38748156    -0.13600
C1402       C  0.63509408  0.98911124  0.32094296     0.16100
C1403       C  0.65892018  0.99063138  0.29699393     0.25500
C1404       C  0.67255121  0.97404776  0.31042323    -0.40700
C1405       C  0.66140898  0.95536143  0.34748445     0.32500
C1406       C  0.63753857  0.95377699  0.37118020     0.14200
F1407       F  0.62340612  0.50652171  0.30904745    -0.13100
F1408       F  0.67350405  0.93848004  0.36068958    -0.13600
F1409       F  0.66966110  0.50944551  0.26213480    -0.15900
F1410       F  0.62739085  0.93587169  0.40717081    -0.14500
F1411       F  0.56343983  0.94732665  0.33277987    -0.14500
F1412       F  0.59903164  0.99800662  0.49695701    -0.15900
C1413       C  0.69916760  0.97094327  0.10135486     0.14200
C1414       C  0.72653645  0.98690912  0.07925736     0.01200
C1415       C  0.75318271  0.00184094  0.10359676     0.16100
C1416       C  0.75255370  0.00052882  0.14947933     0.25500
C1417       C  0.72518106  0.98433142  0.17177193    -0.40800
C1418       C  0.69845079  0.96967775  0.14720340     0.32600
C1419       C  0.72733928  0.98787161  0.03077304     0.01200
F1420       F  0.77978999  0.01810527  0.08282649    -0.13100
F1421       F  0.67164120  0.95327481  0.16742261    -0.13600
C1422       C  0.71310691  0.50092811  0.00758843     0.16100
C1423       C  0.71407379  0.50209497  0.96174435     0.25500
C1424       C  0.72925752  0.99003989  0.93810079    -0.40700
C1425       C  0.74325089  0.97676747  0.96166450     0.32500
C1426       C  0.74226832  0.97572253  0.00755965     0.14200
F1427       F  0.69871251  0.51299498  0.02944103    -0.13100
F1428       F  0.75723526  0.96405162  0.94043029    -0.13600
F1429       F  0.70056675  0.51548665  0.94070120    -0.15900
F1430       F  0.75536981  0.96224026  0.02943302    -0.14500
F1431       F  0.67317269  0.95595737  0.07843540    -0.14500
F1432       F  0.77865494  0.01568902  0.17206141    -0.15900
C1433       C  0.90024884  0.87482797  0.73657932     0.14200
C1434       C  0.87063526  0.85560045  0.72302472     0.01200
C1435       C  0.86069734  0.86058440  0.68265291     0.16100
C1436       C  0.88035179  0.88357028  0.65517218     0.25500
C1437       C  0.91036260  0.90233199  0.66777534    -0.40800
C1438       C  0.92001779  0.89819115  0.70918823     0.32600
C1439       C  0.84989685  0.82982374  0.75009799     0.01200
F1440       F  0.83186168  0.84291822  0.66967242    -0.13100
F1441       F  0.94891794  0.91553278  0.72203534    -0.13600
C1442       C  0.84058624  0.83430954  0.79119923     0.16100
C1443       C  0.81853285  0.81001995  0.81464255     0.25500
C1444       C  0.80534792  0.78089671  0.79709740    -0.40700
C1445       C  0.81531241  0.77640551  0.75639401     0.32500
C1446       C  0.83753589  0.80067831  0.73321816     0.14200
F1447       F  0.85179107  0.86237987  0.80757716    -0.13100
F1448       F  0.80358377  0.74852571  0.73905703    -0.13600
F1449       F  0.80892069  0.81523674  0.85332635    -0.15900
F1450       F  0.84676638  0.79584920  0.69389955    -0.14500
F1451       F  0.91030829  0.87014601  0.77540390    -0.14500
F1452       F  0.86999159  0.88725640  0.61591406    -0.15900
C1453       C  0.66434932  0.63817814  0.78552566     0.14200
C1454       C  0.65996483  0.64427089  0.74206396     0.01200
C1455       C  0.67931831  0.67242778  0.72391834     0.16100
C1456       C  0.70293833  0.69424386  0.74864891     0.25500
C1457       C  0.70769233  0.68835996  0.79236233    -0.40800
C1458       C  0.68790605  0.66005982  0.81062105     0.32600
C1459       C  0.63572451  0.62130080  0.71471730     0.01200
F1460       F  0.67560308  0.67861069  0.68172915    -0.13100
F1461       F  0.69164302  0.65321327  0.85239304    -0.13600
C1462       C  0.61257233  0.62584908  0.69960981     0.16100
C1463       C  0.59184704  0.60637250  0.66891123     0.25500
C1464       C  0.59408483  0.58198917  0.65225977    -0.40700
C1465       C  0.61668641  0.57680071  0.66926696     0.32500
C1466       C  0.63720082  0.59626063  0.70026063     0.14200
F1467       F  0.61050022  0.64969623  0.71390412    -0.13100
F1468       F  0.61968098  0.55345490  0.65512891    -0.13600
F1469       F  0.57023839  0.61213199  0.65463039    -0.15900
F1470       F  0.65946380  0.59148220  0.71455541    -0.14500
F1471       F  0.64571958  0.61106327  0.80366280    -0.14500
F1472       F  0.72088425  0.72124456  0.72968297    -0.15900
C1473       C  0.81588479  0.81763377  0.37116633     0.14200
C1474       C  0.84602793  0.82873990  0.36001999     0.01200
C1475       C  0.85297429  0.81686612  0.32329399     0.16100
C1476       C  0.83005265  0.79404804  0.29836135     0.25500
C1477       C  0.79987531  0.78252435  0.31020489    -0.40800
C1478       C  0.79308896  0.79466306  0.34677553     0.32600
C1479       C  0.86979949  0.85201541  0.38799806     0.01200
F1480       F  0.88192404  0.82664842  0.31249752    -0.13100
F1481       F  0.76425472  0.78468056  0.35851679    -0.13600
C1482       C  0.87042950  0.84657867  0.43304001     0.16100
C1483       C  0.89021937  0.86926496  0.46099171     0.25500
C1484       C  0.91032770  0.89801972  0.44445498    -0.40700
C1485       C  0.91071630  0.90304147  0.39888398     0.32500
C1486       C  0.89050509  0.88022632  0.37091502     0.14200
F1487       F  0.85157743  0.81914485  0.45012220    -0.13100
F1488       F  0.92997279  0.93021786  0.38151711    -0.13600
F1489       F  0.88967175  0.86282628  0.50438768    -0.15900
F1490       F  0.89038891  0.88602666  0.32742634    -0.14500
F1491       F  0.80849560  0.82924258  0.40575268    -0.14500
F1492       F  0.83740197  0.78243376  0.26375294    -0.15900
C1493       C  0.60662441  0.62461028  0.40171773     0.14200
C1494       C  0.62969529  0.62065166  0.38490811     0.01200
C1495       C  0.63211545  0.59596223  0.39870270     0.16100
C1496       C  0.61267938  0.57623831  0.43048975     0.25500
C1497       C  0.59036245  0.58091347  0.44956233    -0.40800
C1498       C  0.58713025  0.60501575  0.43365663     0.32600
C1499       C  0.65394871  0.64454867  0.35852456     0.01200
F1500       F  0.65425095  0.59169685  0.38263506    -0.13100
F1501       F  0.56590291  0.61053345  0.45007753    -0.13600
C1502       C  0.68034215  0.66525532  0.37976059     0.16100
C1503       C  0.70408840  0.68766611  0.35603451     0.25500
C1504       C  0.70210824  0.68992506  0.30997487    -0.40700
C1505       C  0.67523103  0.66917545  0.28875861     0.32500
C1506       C  0.65137047  0.64672194  0.31292202     0.14200
F1507       F  0.68316050  0.66364568  0.42390359    -0.13100
F1508       F  0.67178938  0.67062984  0.24475840    -0.13600
F1509       F  0.72920261  0.70676408  0.37854214    -0.15900
F1510       F  0.62587885  0.62695419  0.29178996    -0.14500
F1511       F  0.60394552  0.64841724  0.38881598    -0.14500
F1512       F  0.61668474  0.55330744  0.44364682    -0.15900
C1513       C  0.73064878  0.72610891  0.00373671     0.14200
C1514       C  0.75669446  0.73241812  0.02727273     0.01200
C1515       C  0.78263817  0.73852095  0.00394907     0.16100
C1516       C  0.78254869  0.73845512  0.95802298     0.25500
C1517       C  0.75634863  0.73164878  0.93461518    -0.40800
C1518       C  0.73037058  0.72535497  0.95783077     0.32600
C1519       C  0.75664672  0.73250323  0.07603584     0.01200
F1520       F  0.80793174  0.74399386  0.02562218    -0.13100
F1521       F  0.70502768  0.71960499  0.93604622    -0.13600
C1522       C  0.73504927  0.70753065  0.09931176     0.16100
C1523       C  0.73419267  0.70781713  0.14520871     0.25500
C1524       C  0.75519978  0.73307866  0.16912350    -0.40700
C1525       C  0.77732010  0.75788891  0.14548686     0.32500
C1526       C  0.77786593  0.75760007  0.09955464     0.14200
F1527       F  0.71488641  0.68256211  0.07750749    -0.13100
F1528       F  0.79821602  0.78286748  0.16645949    -0.13600
F1529       F  0.71281692  0.68307848  0.16596912    -0.15900
F1530       F  0.79872868  0.78229602  0.07800272    -0.14500
F1531       F  0.70565075  0.72142380  0.02523146    -0.14500
F1532       F  0.80790379  0.74434260  0.93639975    -0.15900
loop_ 
_geom_bond_atom_site_label_1 
_geom_bond_atom_site_label_2 
_geom_bond_distance 
_geom_bond_site_symmetry_2 
_ccdc_geom_bond_type 
C1            N2   1.362       .  A
C1            N6   1.357       .  A
C1          C355   1.497       .  S
N2            C3   1.365       .  A
C3            N4   1.360       .  A
C3          C375   1.495       .  S
N4            C5   1.356       .  A
C5            N6   1.356       .  A
C5          C328   1.480       .  S
C7            N8   1.361       .  A
C7           N12   1.359       .  A
C7          C308   1.491       .  S
N8            C9   1.360       .  A
C9           N10   1.356       .  A
C9          C368   1.474       .  S
N10          C11   1.355       .  A
C11          N12   1.357       .  A
C11         C295   1.475       .  S
C13          N14   1.358       .  A
C13          N18   1.360       .  A
C13         C235   1.481       .  S
N14          C15   1.357       .  A
C15          N16   1.355       .  A
C15         C255   1.477       .  S
N16          C17   1.358       .  A
C17          N18   1.361       .  A
C17         C268   1.479       .  S
C19          N20   1.361       .  A
C19          N24   1.358       .  A
C19         C195   1.486       .  S
N20          C21   1.362       .  A
C21          N22   1.358       .  A
C21         C275   1.486       .  S
N22          C23   1.355       .  A
C23          N24   1.356       .  A
C23         C208   1.479       .  S
C25          N26   1.357       .  A
C25          N30   1.360       .  A
C25         C155   1.483       .  S
N26          C27   1.356       .  A
C27          N28   1.357       .  A
C27         C135   1.485       .  S
N28          C29   1.360       .  A
C29          N30   1.361       .  A
C29         C168   1.479       .  S
C31          N32   1.360       .  A
C31          N36   1.359       .  A
C31         C108   1.497       .  S
N32          C33   1.360       .  A
C33          N34   1.358       .  A
C33          C88   1.490       .  S
N34          C35   1.359       .  A
C35          N36   1.359       .  A
C35         C175   1.483       .  S
O37         Mn63   2.092       .  S
O37         C447   1.272   1_545  A
C38         C315   1.491       .  S
C38          O71   1.272       .  A
C38          O68   1.270       .  A
O39         Mn46   2.165       .  S
O39         Mn57   2.119       .  S
O39         Mn61   2.164       .  S
O39        Mn446   2.126       .  S
O40         Mn74   2.099       .  S
O40          C50   1.273       .  A
O41         Mn57   2.092       .  S
O41          C64   1.272       .  A
O42         Mn61   2.109       .  S
O42          C69   1.253       .  A
O43         Mn63   1.959       .  S
O43        Mn840   1.954       .  S
O43          C59   1.218       .  S
C44         C248   1.477       .  S
C44          O47   1.252       .  A
C44          O70   1.216       .  S
O45         Mn46   2.159       .  S
O45         Mn79   2.121       .  S
O45         Mn61   2.170       .  S
O45        Mn831   2.118       .  S
Mn46         O51   2.099       .  S
Mn46        O841   2.101       .  S
Mn46        O461   2.090       .  S
Mn46       O1201   2.163       .  S
O47        Mn827   2.107   1_455  S
O48         Mn55   2.108       .  S
O48          C50   1.275       .  A
C49         C215   1.477       .  S
C49          O75   1.251       .  A
C49          O62   1.215       .  S
C50         C348   1.500       .  S
O51          C76   1.251       .  A
O52         Mn55   2.120       .  S
O52         Mn74   2.122       .  S
O52       Mn1195   2.164   1_445  S
O52       Mn1210   2.165   1_445  S
O53         Mn57   1.957       .  S
O53         Mn79   1.957       .  S
O53          C76   1.217       .  S
C54         C148   1.491       .  S
C54          O56   1.272       .  A
C54         O846   1.271       .  A
Mn55         O68   2.087       .  S
Mn55        O453   1.954   1_545  S
Mn55        O445   1.957   1_545  S
O56         Mn79   2.095       .  S
Mn57         O73   2.099       .  S
Mn57         O67   1.966       .  S
O58         Mn63   2.094       .  S
O58         C443   1.271   1_545  A
C59         C128   1.476       .  S
C59          O77   1.254       .  A
C60         C188   1.495       .  S
C60          O73   1.273       .  A
C60         O441   1.271       .  A
Mn61        O813   2.107       .  S
Mn61        O460   2.106       .  S
Mn61       O1201   2.166       .  S
O62         Mn65   1.957       .  S
O62        Mn438   1.957       .  S
Mn63        O422   2.126   1_545  S
Mn63         O81   1.962       .  S
C64         C228   1.490       .  S
C64         O420   1.272       .  A
Mn65         O72   2.113       .  S
Mn65         O80   2.086       .  S
Mn65        O811   2.118   1_455  S
Mn65         O70   1.963       .  S
C66         C115   1.495       .  S
C66          O82   1.271       .  A
C66         O838   1.275       .  A
O67         Mn79   1.952       .  S
O67          C69   1.217       .  S
C69         C335   1.487       .  S
O70        Mn438   1.954       .  S
O71         Mn74   2.092       .  S
O72         C832   1.276   1_455  A
Mn74        O809   1.955   1_455  S
Mn74        O847   1.965   1_455  S
O75        Mn812   2.102   1_455  S
C76         C288   1.476       .  S
O77        Mn444   2.105   1_545  S
O78        Mn429   2.091   1_545  S
O78          C83   1.250       .  A
Mn79         O82   2.085       .  S
O80         C820   1.270   1_455  A
O81        Mn840   1.968       .  S
O81          C83   1.220       .  S
C83          C95   1.481       .  S
C84          C85   1.406       .  A
C84          C89   1.398       .  A
C84         F102   1.358       .  S
C85          C90   1.486       .  S
C85          C86   1.405       .  A
C86          C87   1.401       .  A
C86         F857   1.358       .  S
C87          C88   1.413       .  A
C87         F869   1.357       .  S
C88          C89   1.410       .  A
C89          F92   1.357       .  S
C90          C93   1.406       .  A
C90          C97   1.407       .  A
F91         C852   1.358       .  S
C93          C94   1.395       .  A
C93          F98   1.358       .  S
C94          C95   1.407       .  A
C94         F866   1.358       .  S
C95          C96   1.409       .  A
C96          C97   1.402       .  A
C96          F99   1.358       .  S
C97         F101   1.358       .  S
F100        C860   1.358   1_455  S
F103        C853   1.357       .  S
C104        C105   1.400       .  A
C104        C109   1.402       .  A
C104        F122   1.358       .  S
C105        C110   1.478       .  S
C105        C872   1.401       .  A
C106        C107   1.399       .  A
C106        C871   1.404       .  A
C106        F111   1.358       .  S
C107        C874   1.411       .  A
C107        F123   1.357       .  S
C108        C109   1.417       .  A
C108        C873   1.415       .  A
C109        F112   1.357       .  S
C110        C113   1.403       .  A
C110        C117   1.400       .  A
C113        C114   1.402       .  A
C113        F118   1.358       .  S
C114        C115   1.413       .  A
C114        F120   1.358       .  S
C115        C116   1.416       .  A
C116        C117   1.399       .  A
C116        F119   1.357       .  S
C117        F121   1.358       .  S
C124        C129   1.402       .  A
C124        C891   1.407   1_455  A
C124        F142   1.358       .  S
C125        C130   1.481       .  S
C125        C126   1.404       .  A
C125        C890   1.407       .  A
C126        C127   1.393       .  A
C126        F131   1.358       .  S
C127        C128   1.408       .  A
C127        F143   1.358       .  S
C128        C895   1.407       .  A
C129        C894   1.407   1_455  A
C129        F132   1.358       .  S
C130        C133   1.404       .  A
C130        C903   1.405       .  A
C133        C134   1.400       .  A
C133        F138   1.358       .  S
C134        C135   1.411       .  A
C134        F140   1.357       .  S
C135        C902   1.410       .  A
C136        C137   1.396       .  A
C136        C901   1.410       .  A
C136        F139   1.358       .  S
C137        C896   1.405       .  A
C137        F141   1.358       .  S
C144        C145   1.403       .  A
C144        C149   1.398       .  A
C144        F928   1.358       .  S
C145        C150   1.482       .  S
C145        C146   1.405       .  A
C146        C147   1.399       .  A
C146        F151   1.358       .  S
C147        C148   1.413       .  A
C147        F163   1.358       .  S
C148        C149   1.414       .  A
C149        F918   1.358       .  S
C150        C157   1.406       .  A
C150        C919   1.404       .  A
F152        C915   1.358       .  S
C153        C154   1.396       .  A
C153        C916   1.404       .  A
C153        F158   1.358       .  S
C154        C921   1.410       .  A
C154        F160   1.358       .  S
C155        C156   1.408       .  A
C155        C920   1.410       .  A
C156        C157   1.402       .  A
C156        F159   1.358       .  S
C157        F161   1.358       .  S
F162        C910   1.358       .  S
C164        C169   1.400       .  A
C164        C931   1.406   1_455  A
C164        F182   1.358       .  S
C165        C170   1.481       .  S
C165        C166   1.405       .  A
C165        C930   1.406       .  A
C166        C167   1.398       .  A
C166        F171   1.358       .  S
C167        C168   1.408       .  A
C167        F183   1.358       .  S
C168        C935   1.407       .  A
C169        C934   1.407   1_455  A
C169        F172   1.358       .  S
C170        C177   1.404       .  A
C170        C939   1.405       .  A
C173        C174   1.399   1_554  A
C173        C936   1.405       .  A
C173        F178   1.358   1_655  S
C174        C941   1.409       .  A
C174        F180   1.357   1_655  S
C175        C176   1.409       .  A
C175        C940   1.409       .  A
C176        C177   1.399   1_556  A
C176        F179   1.358       .  S
C177        F181   1.358       .  S
C184        C185   1.403       .  A
C184        C189   1.399       .  A
C184        F202   1.358       .  S
C185        C190   1.482       .  S
C185        C186   1.403       .  A
C186        C187   1.401       .  A
C186        F191   1.358       .  S
C187        C188   1.415       .  A
C187        F203   1.358       .  S
C188        C189   1.414       .  A
C189        F192   1.357       .  S
C190        C197   1.403       .  A
C190        C576   1.405       .  A
C193        C194   1.403       .  A
C193        C573   1.405       .  A
C193        F198   1.358   1_565  S
C194        C578   1.411       .  A
C194        F200   1.358   1_565  S
C195        C196   1.410       .  A
C195        C577   1.411       .  A
C196        C197   1.396       .  A
C196        F199   1.358       .  S
C197        F201   1.358       .  S
C204        C205   1.406       .  A
C204        C209   1.396       .  A
C204        F222   1.358       .  S
C205        C210   1.480       .  S
C205        C206   1.404       .  A
C206        C207   1.398       .  A
C206        F211   1.358       .  S
C207        C208   1.409       .  A
C207        F223   1.358       .  S
C208        C209   1.408       .  A
C209        F212   1.358       .  S
C210        C213   1.404       .  A
C210        C600   1.407       .  A
C213        C214   1.392       .  A
C213        F218   1.358       .  S
C214        C215   1.409       .  A
C214        F220   1.359       .  S
C215        C599   1.407       .  A
C216        C217   1.401   1_565  A
C216        C598   1.407       .  A
C216        F219   1.358   1_565  S
C217        C593   1.407   1_545  A
C217        F221   1.358       .  S
C224        C225   1.404       .  A
C224        C229   1.399       .  A
C224        F242   1.358       .  S
C225        C230   1.481       .  S
C225        C226   1.403       .  A
C226        C227   1.399       .  A
C226        F231   1.358       .  S
C227        C228   1.413       .  A
C227        F243   1.358       .  S
C228        C229   1.413       .  A
C229        F232   1.358       .  S
C230        C233   1.404       .  A
C230        C237   1.406       .  A
C233        C234   1.396       .  A
C233        F621   1.358       .  S
C234        C235   1.408       .  A
C234        F623   1.358       .  S
C235        C236   1.409       .  A
C236        C237   1.402       .  A
C236        F239   1.358       .  S
C237        F241   1.358       .  S
F238        C616   1.358       .  S
F240        C617   1.358       .  S
C244        C245   1.405       .  A
C244        C249   1.403       .  A
C244        F262   1.357       .  S
C245        C250   1.474       .  S
C245        C246   1.400       .  A
C246        C247   1.391       .  A
C246        F251   1.358       .  S
C247        C248   1.410       .  A
C247        F263   1.358       .  S
C248        C249   1.408       .  A
C249        F252   1.358       .  S
C250        C253   1.403       .  A
C250        C257   1.403       .  A
C253        C254   1.399       .  A
C253        F641   1.358       .  S
C254        C255   1.409       .  A
C254        F643   1.358       .  S
C255        C256   1.407       .  A
C256        C257   1.396       .  A
C256        F259   1.358       .  S
C257        F261   1.358       .  S
F258        C636   1.358   1_545  S
F260        C637   1.358   1_545  S
C264        C265   1.404       .  A
C264        C269   1.397       .  A
C264        F282   1.358       .  S
C265        C270   1.478       .  S
C265        C266   1.404       .  A
C266        C267   1.398       .  A
C266        F271   1.358       .  S
C267        C268   1.407       .  A
C267        F283   1.358       .  S
C268        C269   1.410       .  A
C269        F272   1.358       .  S
C270        C277   1.404       .  A
C270        C656   1.402       .  A
C273        C274   1.397   1_554  A
C273        C653   1.402   1_545  A
C273        F278   1.358       .  S
C274        C658   1.413   1_545  A
C274        F280   1.358       .  S
C275        C276   1.410       .  A
C275        C657   1.413       .  A
C276        C277   1.398   1_556  A
C276        F279   1.357       .  S
C277        F281   1.358       .  S
C284        C285   1.405       .  A
C284        C289   1.401       .  A
C284        F302   1.358       .  S
C285        C290   1.475       .  S
C285        C286   1.401       .  A
C286        C287   1.391       .  A
C286        F291   1.358       .  S
C287        C288   1.409       .  A
C287        F303   1.358       .  S
C288        C289   1.408       .  A
C289        F292   1.358       .  S
C290        C293   1.402       .  A
C290        C297   1.405       .  A
C293        C294   1.398       .  A
C293        F298   1.358       .  S
C294        C295   1.409       .  A
C294        F300   1.358       .  S
C295        C296   1.406       .  A
C296        C297   1.396       .  A
C296        F299   1.358       .  S
C297        F301   1.358       .  S
C304        C305   1.401       .  A
C304        C309   1.401       .  A
C304        F322   1.358       .  S
C305        C310   1.475       .  S
C305        C306   1.400       .  A
C306        C307   1.396       .  A
C306        F311   1.358       .  S
C307        C308   1.413       .  A
C307        F323   1.358       .  S
C308        C309   1.414       .  A
C309        F312   1.357       .  S
C310        C313   1.401       .  A
C310        C317   1.401       .  A
C313        C314   1.398       .  A
C313        F318   1.358       .  S
C314        C315   1.413       .  A
C314        F320   1.358       .  S
C315        C316   1.415       .  A
C316        C317   1.398       .  A
C316        F319   1.358       .  S
C317        F321   1.358       .  S
C324        C325   1.406       .  A
C324        C329   1.395       .  A
C324        F342   1.358       .  S
C325        C330   1.484       .  S
C325        C326   1.407       .  A
C326        C327   1.403       .  A
C326        F331   1.358       .  S
C327        C328   1.409       .  A
C327        F343   1.358       .  S
C328        C329   1.406       .  A
C329        F332   1.358       .  S
C330        C333   1.403       .  A
C330        C337   1.407       .  A
C333        C334   1.394       .  A
C333        F338   1.359       .  S
C334        C335   1.412       .  A
C334        F340   1.358       .  S
C335        C336   1.409       .  A
C336        C337   1.404       .  A
C336        F339   1.357       .  S
C337        F341   1.357       .  S
C344        C345   1.402       .  A
C344        C349   1.402       .  A
C344        F362   1.358       .  S
C345        C350   1.482       .  S
C345        C346   1.402       .  A
C346        C347   1.401       .  A
C346        F351   1.358       .  S
C347        C348   1.414       .  A
C347        F363   1.356       .  S
C348        C349   1.417       .  A
C349        F352   1.358       .  S
C350        C353   1.400       .  A
C350        C357   1.404       .  A
C353        C354   1.396       .  A
C353        F358   1.358       .  S
C354        C355   1.415       .  A
C354        F360   1.357       .  S
C355        C356   1.415       .  A
C356        C357   1.407       .  A
C356        F359   1.358       .  S
C357        F361   1.357       .  S
C364        C365   1.408       .  A
C364        C369   1.398   1_554  A
C364        F382   1.358       .  S
C365        C370   1.485       .  S
C365        C366   1.407       .  A
C366        C367   1.398   1_554  A
C366        F371   1.358       .  S
C367        C368   1.406       .  A
C367        F383   1.358       .  S
C368        C369   1.404       .  A
C369        F372   1.358       .  S
C370        C373   1.405       .  A
C370        C377   1.404       .  A
C373        C374   1.399       .  A
C373        F378   1.358       .  S
C374        C375   1.412       .  A
C374        F380   1.357       .  S
C375        C376   1.415       .  A
C376        C377   1.399       .  A
C376        F379   1.358       .  S
C377        F381   1.358       .  S
C384        N385   1.362       .  A
C384        N389   1.357       .  A
C384        C738   1.497       .  S
N385        C386   1.365       .  A
C386        N387   1.360       .  A
C386        C758   1.495       .  S
N387        C388   1.356       .  A
C388        N389   1.356       .  A
C388        C711   1.480       .  S
C390        N391   1.361       .  A
C390        N395   1.359       .  A
C390        C691   1.491       .  S
N391        C392   1.360       .  A
C392        N393   1.356       .  A
C392        C751   1.474       .  S
N393        C394   1.355       .  A
C394        N395   1.357       .  A
C394        C678   1.475       .  S
C396        N397   1.358       .  A
C396        N401   1.360       .  A
C396        C618   1.481       .  S
N397        C398   1.357       .  A
C398        N399   1.355       .  A
C398        C638   1.477       .  S
N399        C400   1.358       .  A
C400        N401   1.361       .  A
C400        C651   1.479       .  S
C402        N403   1.361       .  A
C402        N407   1.358       .  A
C402        C578   1.486       .  S
N403        C404   1.362       .  A
C404        N405   1.357       .  A
C404        C658   1.486       .  S
N405        C406   1.355       .  A
C406        N407   1.356       .  A
C406        C591   1.479       .  S
C408        N409   1.357       .  A
C408        N413   1.360       .  A
C408        C538   1.483       .  S
N409        C410   1.356       .  A
C410        N411   1.357       .  A
C410        C518   1.485       .  S
N411        C412   1.360       .  A
C412        N413   1.361       .  A
C412        C551   1.479       .  S
C414        N415   1.360       .  A
C414        N419   1.359       .  A
C414        C491   1.497       .  S
N415        C416   1.360       .  A
C416        N417   1.358       .  A
C416        C471   1.490       .  S
N417        C418   1.359       .  A
C418        N419   1.359       .  A
C418        C558   1.483       .  S
O420       Mn446   2.092       .  S
C421        C698   1.491       .  S
C421        O454   1.272       .  A
C421        O451   1.270       .  A
O422       Mn429   2.165       .  S
O422       Mn440   2.119       .  S
O422       Mn444   2.164       .  S
O423       Mn457   2.099       .  S
O423        C433   1.272       .  A
O424       Mn440   2.092       .  S
O424        C447   1.272       .  A
O425       Mn444   2.109       .  S
O425        C452   1.253       .  A
O426      Mn1223   1.954       .  S
O426       Mn446   1.958       .  S
O426        C442   1.218       .  S
C427        C631   1.477       .  S
C427        O430   1.252       .  A
C427        O453   1.216       .  S
O428      Mn1214   2.118       .  S
O428       Mn429   2.160       .  S
O428       Mn462   2.121       .  S
O428       Mn444   2.170       .  S
Mn429      O1224   2.101       .  S
Mn429       O434   2.100       .  S
Mn429       O818   2.164   1_565  S
O430      Mn1210   2.107   1_455  S
O431       Mn438   2.108       .  S
O431        C433   1.275       .  A
C432        C598   1.477       .  S
C432        O458   1.251       .  A
C432        O445   1.215       .  S
C433        C731   1.500       .  S
O434        C459   1.251       .  A
O435       Mn812   2.164   1_455  S
O435       Mn438   2.120       .  S
O435       Mn457   2.122       .  S
O435       Mn827   2.165   1_455  S
O436       Mn440   1.957       .  S
O436       Mn462   1.958       .  S
O436        C459   1.217       .  S
C437        C531   1.491       .  S
C437       O1229   1.271       .  A
C437        O439   1.272       .  A
Mn438       O451   2.087       .  S
O439       Mn462   2.095       .  S
Mn440       O456   2.099       .  S
Mn440       O450   1.966       .  S
O441       Mn446   2.093       .  S
C442        C511   1.477       .  S
C442        O460   1.254       .  A
C443        C571   1.495       .  S
C443        O456   1.273       .  A
Mn444      O1196   2.107       .  S
Mn444       O818   2.166   1_565  S
O445       Mn448   1.957       .  S
Mn446       O464   1.962       .  S
C447        C611   1.490       .  S
Mn448       O455   2.113       .  S
Mn448       O463   2.086       .  S
Mn448      O1194   2.118   1_455  S
Mn448       O453   1.963       .  S
C449        C498   1.495       .  S
C449       O1221   1.275       .  A
C449        O465   1.271       .  A
O450       Mn462   1.952       .  S
O450        C452   1.217       .  S
C452        C718   1.487       .  S
O454       Mn457   2.092       .  S
O455       C1215   1.276   1_455  A
Mn457      O1192   1.955   1_455  S
Mn457      O1230   1.965   1_455  S
O458      Mn1195   2.103   1_455  S
C459        C671   1.476       .  S
O461        C466   1.250       .  A
Mn462       O465   2.087       .  S
O463       C1203   1.270   1_455  A
O464      Mn1223   1.968       .  S
O464        C466   1.220       .  S
C466        C478   1.481       .  S
C467        C468   1.406       .  A
C467        C472   1.398       .  A
C467        F485   1.358       .  S
C468        C473   1.486       .  S
C468        C469   1.405       .  A
C469        C470   1.401       .  A
C469       F1240   1.358       .  S
C470        C471   1.413       .  A
C470       F1252   1.357       .  S
C471        C472   1.410       .  A
C472        F475   1.358       .  S
C473        C476   1.406       .  A
C473        C480   1.407       .  A
F474       C1235   1.358       .  S
C476        C477   1.395       .  A
C476        F481   1.358       .  S
C477        C478   1.407       .  A
C477       F1249   1.358       .  S
C478        C479   1.410       .  A
C479        C480   1.402       .  A
C479        F482   1.358       .  S
C480        F484   1.358       .  S
F483       C1243   1.358   1_455  S
F486       C1236   1.357       .  S
C487        C488   1.401       .  A
C487        C492   1.402       .  A
C487        F505   1.358       .  S
C488        C493   1.478       .  S
C488       C1255   1.401       .  A
C489       C1254   1.404       .  A
C489        C490   1.399       .  A
C489        F494   1.358       .  S
C490       C1257   1.411       .  A
C490        F506   1.357       .  S
C491       C1256   1.415       .  A
C491        C492   1.416       .  A
C492        F495   1.357       .  S
C493        C496   1.403       .  A
C493        C500   1.400       .  A
C496        C497   1.402       .  A
C496        F501   1.358       .  S
C497        C498   1.413       .  A
C497        F503   1.358       .  S
C498        C499   1.416       .  A
C499        C500   1.399       .  A
C499        F502   1.357       .  S
C500        F504   1.358       .  S
C507       C1274   1.407   1_455  A
C507        C512   1.402       .  A
C507        F525   1.358       .  S
C508        C513   1.481       .  S
C508       C1273   1.407       .  A
C508        C509   1.404       .  A
C509        C510   1.393       .  A
C509        F514   1.358       .  S
C510        C511   1.408       .  A
C510        F526   1.358       .  S
C511       C1278   1.407       .  A
C512       C1277   1.407   1_455  A
C512        F515   1.358       .  S
C513        C516   1.404       .  A
C513       C1286   1.405       .  A
C516        C517   1.400       .  A
C516        F521   1.358       .  S
C517        C518   1.411       .  A
C517        F523   1.357       .  S
C518       C1285   1.410       .  A
C519       C1284   1.410       .  A
C519        C520   1.396       .  A
C519        F522   1.358       .  S
C520       C1279   1.405       .  A
C520        F524   1.358       .  S
C527        C528   1.403       .  A
C527        C532   1.398       .  A
C527       F1311   1.358       .  S
C528        C533   1.483       .  S
C528        C529   1.405       .  A
C529        C530   1.399       .  A
C529        F534   1.358       .  S
C530        C531   1.413       .  A
C530        F546   1.358       .  S
C531        C532   1.414       .  A
C532       F1301   1.358       .  S
C533       C1302   1.404       .  A
C533        C540   1.406       .  A
F535       C1298   1.358       .  S
C536       C1299   1.404       .  A
C536        C537   1.396       .  A
C536        F541   1.358       .  S
C537       C1304   1.409       .  A
C537        F543   1.358       .  S
C538       C1303   1.410       .  A
C538        C539   1.409       .  A
C539        C540   1.402       .  A
C539        F542   1.358       .  S
C540        F544   1.358       .  S
F545       C1293   1.358       .  S
C547       C1314   1.406   1_455  A
C547        C552   1.400       .  A
C547        F565   1.358       .  S
C548        C553   1.481       .  S
C548       C1313   1.406       .  A
C548        C549   1.405       .  A
C549        C550   1.398       .  A
C549        F554   1.358       .  S
C550        C551   1.408       .  A
C550        F566   1.358       .  S
C551       C1318   1.407       .  A
C552       C1317   1.407   1_455  A
C552        F555   1.358       .  S
C553       C1322   1.405       .  A
C553        C560   1.404       .  A
C556       C1319   1.405       .  A
C556        C557   1.399   1_554  A
C556        F561   1.358   1_655  S
C557       C1324   1.409       .  A
C557        F563   1.357   1_655  S
C558       C1323   1.409       .  A
C558        C559   1.409       .  A
C559        C560   1.399   1_556  A
C559        F562   1.358       .  S
C560        F564   1.358       .  S
C567        C568   1.403       .  A
C567        C572   1.399       .  A
C567        F585   1.358       .  S
C568        C573   1.482       .  S
C568        C569   1.403   1_565  A
C569        C570   1.401       .  A
C569        F574   1.358       .  S
C570        C571   1.415   1_545  A
C570        F586   1.358       .  S
C571        C572   1.414       .  A
C572        F575   1.357       .  S
C573        C580   1.403       .  A
C576        C577   1.403       .  A
C576        F581   1.358       .  S
C577        F583   1.358       .  S
C578        C579   1.410       .  A
C579        C580   1.396       .  A
C579        F582   1.358       .  S
C580        F584   1.358       .  S
C587        C588   1.406   1_545  A
C587        C592   1.396       .  A
C587        F605   1.358       .  S
C588        C593   1.480       .  S
C588        C589   1.404       .  A
C589        C590   1.398       .  A
C589        F594   1.358       .  S
C590        C591   1.409       .  A
C590        F606   1.358       .  S
C591        C592   1.408   1_565  A
C592        F595   1.358       .  S
C593        C596   1.404       .  A
C596        C597   1.392       .  A
C596        F601   1.358       .  S
C597        C598   1.409       .  A
C597        F603   1.359       .  S
C599        C600   1.401       .  A
C599        F602   1.358       .  S
C600        F604   1.358       .  S
C607        C608   1.404       .  A
C607        C612   1.399       .  A
C607        F625   1.358       .  S
C608        C613   1.481       .  S
C608        C609   1.403   1_565  A
C609        C610   1.399       .  A
C609        F614   1.358       .  S
C610        C611   1.413   1_545  A
C610        F626   1.358       .  S
C611        C612   1.413       .  A
C612        F615   1.358       .  S
C613        C616   1.404       .  A
C613        C620   1.406       .  A
C616        C617   1.396       .  A
C617        C618   1.408       .  A
C618        C619   1.409       .  A
C619        C620   1.402       .  A
C619        F622   1.358   1_565  S
C620        F624   1.358   1_565  S
C627        C628   1.405       .  A
C627        C632   1.403       .  A
C627        F645   1.357       .  S
C628        C633   1.473       .  S
C628        C629   1.400       .  A
C629        C630   1.391       .  A
C629        F634   1.358       .  S
C630        C631   1.410       .  A
C630        F646   1.358       .  S
C631        C632   1.408       .  A
C632        F635   1.358       .  S
C633        C636   1.403       .  A
C633        C640   1.403       .  A
C636        C637   1.399       .  A
C637        C638   1.409       .  A
C638        C639   1.407       .  A
C639        C640   1.396       .  A
C639        F642   1.358       .  S
C640        F644   1.358       .  S
C647        C648   1.404       .  A
C647        C652   1.397       .  A
C647        F665   1.358       .  S
C648        C653   1.478       .  S
C648        C649   1.404   1_565  A
C649        C650   1.398       .  A
C649        F654   1.358       .  S
C650        C651   1.407   1_545  A
C650        F666   1.358       .  S
C651        C652   1.410       .  A
C652        F655   1.358       .  S
C653        C660   1.404       .  A
C656        C657   1.397   1_554  A
C656        F661   1.358       .  S
C657        F663   1.358       .  S
C658        C659   1.410       .  A
C659        C660   1.398   1_556  A
C659        F662   1.357       .  S
C660        F664   1.358       .  S
C667        C668   1.405       .  A
C667        C672   1.402       .  A
C667        F685   1.358       .  S
C668        C673   1.475       .  S
C668        C669   1.401       .  A
C669        C670   1.391       .  A
C669        F674   1.358       .  S
C670        C671   1.409       .  A
C670        F686   1.358       .  S
C671        C672   1.408       .  A
C672        F675   1.358       .  S
C673        C676   1.402       .  A
C673        C680   1.405       .  A
C676        C677   1.398       .  A
C676        F681   1.358       .  S
C677        C678   1.409       .  A
C677        F683   1.358       .  S
C678        C679   1.406       .  A
C679        C680   1.396       .  A
C679        F682   1.358       .  S
C680        F684   1.358       .  S
C687        C688   1.401       .  A
C687        C692   1.401       .  A
C687        F705   1.358       .  S
C688        C693   1.474       .  S
C688        C689   1.400       .  A
C689        C690   1.396       .  A
C689        F694   1.358       .  S
C690        C691   1.413       .  A
C690        F706   1.358       .  S
C691        C692   1.414       .  A
C692        F695   1.357       .  S
C693        C696   1.401       .  A
C693        C700   1.401       .  A
C696        C697   1.398       .  A
C696        F701   1.358       .  S
C697        C698   1.413       .  A
C697        F703   1.357       .  S
C698        C699   1.415       .  A
C699        C700   1.398       .  A
C699        F702   1.358       .  S
C700        F704   1.358       .  S
C707        C708   1.406       .  A
C707        C712   1.396       .  A
C707        F725   1.358       .  S
C708        C713   1.484       .  S
C708        C709   1.407       .  A
C709        C710   1.403       .  A
C709        F714   1.358       .  S
C710        C711   1.409       .  A
C710        F726   1.358       .  S
C711        C712   1.406       .  A
C712        F715   1.358       .  S
C713        C716   1.403       .  A
C713        C720   1.407       .  A
C716        C717   1.394       .  A
C716        F721   1.359       .  S
C717        C718   1.412       .  A
C717        F723   1.358       .  S
C718        C719   1.409       .  A
C719        C720   1.404       .  A
C719        F722   1.357       .  S
C720        F724   1.357       .  S
C727        C728   1.402       .  A
C727        C732   1.402       .  A
C727        F745   1.358       .  S
C728        C733   1.482       .  S
C728        C729   1.402       .  A
C729        C730   1.401       .  A
C729        F734   1.358       .  S
C730        C731   1.414       .  A
C730        F746   1.356       .  S
C731        C732   1.417       .  A
C732        F735   1.358       .  S
C733        C736   1.400       .  A
C733        C740   1.404       .  A
C736        C737   1.396       .  A
C736        F741   1.358       .  S
C737        C738   1.414       .  A
C737        F743   1.357       .  S
C738        C739   1.415       .  A
C739        C740   1.407       .  A
C739        F742   1.358       .  S
C740        F744   1.357       .  S
C747        C748   1.408       .  A
C747        C752   1.398   1_554  A
C747        F765   1.358       .  S
C748        C753   1.485       .  S
C748        C749   1.407       .  A
C749        C750   1.399   1_554  A
C749        F754   1.358       .  S
C750        C751   1.406       .  A
C750        F766   1.358       .  S
C751        C752   1.404       .  A
C752        F755   1.358       .  S
C753        C756   1.405       .  A
C753        C760   1.404       .  A
C756        C757   1.399       .  A
C756        F761   1.358       .  S
C757        C758   1.412       .  A
C757        F763   1.357       .  S
C758        C759   1.415       .  A
C759        C760   1.399       .  A
C759        F762   1.358       .  S
C760        F764   1.358       .  S
C767        N768   1.362       .  A
C767        N772   1.357       .  A
C767       C1121   1.498       .  S
N768        C769   1.365       .  A
C769        N770   1.360       .  A
C769       C1141   1.494       .  S
N770        C771   1.356       .  A
C771        N772   1.356       .  A
C771       C1094   1.480       .  S
C773        N774   1.361       .  A
C773        N778   1.359       .  A
C773       C1074   1.488       .  S
N774        C775   1.360       .  A
C775        N776   1.356       .  A
C775       C1134   1.474       .  S
N776        C777   1.355       .  A
C777        N778   1.357       .  A
C777       C1061   1.476       .  S
C779        N780   1.358       .  A
C779        N784   1.360       .  A
C779       C1001   1.481       .  S
N780        C781   1.357       .  A
C781        N782   1.355       .  A
C781       C1021   1.476       .  S
N782        C783   1.358       .  A
C783        N784   1.361       .  A
C783       C1034   1.479       .  S
C785        N786   1.361       .  A
C785        N790   1.358       .  A
C785        C961   1.487       .  S
N786        C787   1.362       .  A
C787        N788   1.357       .  A
C787       C1041   1.485       .  S
N788        C789   1.355       .  A
C789        N790   1.356       .  A
C789        C974   1.479       .  S
C791        N792   1.357       .  A
C791        N796   1.360       .  A
C791        C921   1.483       .  S
N792        C793   1.356       .  A
C793        N794   1.357       .  A
C793        C901   1.484   1_655  S
N794        C795   1.360       .  A
C795        N796   1.361       .  A
C795        C934   1.479       .  S
C797        N798   1.360       .  A
C797        N802   1.358       .  A
C797        C874   1.491       .  S
N798        C799   1.361       .  A
C799        N800   1.359       .  A
C799        C854   1.490       .  S
N800        C801   1.359       .  A
C801        N802   1.358       .  A
C801        C941   1.484       .  S
O803       Mn829   2.092       .  S
O803       C1213   1.271   1_545  A
C804       C1081   1.490       .  S
C804        O837   1.271       .  A
C804        O834   1.270       .  A
O805       Mn812   2.165       .  S
O805       Mn823   2.118       .  S
O805       Mn827   2.165       .  S
O805      Mn1212   2.125       .  S
O806       Mn840   2.100       .  S
O806        C816   1.273       .  A
O807       Mn823   2.092       .  S
O807        C830   1.272       .  A
O808       Mn827   2.109       .  S
O808        C835   1.253       .  A
O809       Mn829   1.960       .  S
O809        C825   1.218       .  S
C810       C1014   1.477       .  S
C810        O813   1.252       .  A
C810        O836   1.216       .  S
O811       Mn812   2.161       .  S
O811       Mn845   2.121       .  S
O811       Mn827   2.169       .  S
Mn812       O817   2.099       .  S
Mn812      O1227   2.094       .  S
O814       Mn821   2.106       .  S
O814        C816   1.274       .  A
C815        C981   1.477       .  S
C815        O841   1.251       .  A
C815        O828   1.216       .  S
C816       C1114   1.500       .  S
O817        C842   1.251       .  A
O818       Mn821   2.121       .  S
O818       Mn840   2.123       .  S
O819       Mn823   1.957       .  S
O819       Mn845   1.957       .  S
O819        C842   1.218       .  S
C820        C914   1.491       .  S
C820        O822   1.272       .  A
Mn821       O834   2.088       .  S
Mn821      O1219   1.953   1_545  S
Mn821      O1211   1.958   1_545  S
O822       Mn845   2.096       .  S
Mn823       O839   2.099       .  S
Mn823       O833   1.967       .  S
O824       Mn829   2.095       .  S
O824       C1209   1.272   1_545  A
C825        C894   1.476       .  S
C825        O843   1.254       .  A
C826        C954   1.496       .  S
C826       O1207   1.271       .  A
C826        O839   1.273       .  A
Mn827      O1226   2.105       .  S
O828      Mn1204   1.957       .  S
O828       Mn831   1.958       .  S
Mn829      O1188   2.125   1_545  S
Mn829       O847   1.960       .  S
C830        C994   1.489       .  S
C830       O1186   1.271       .  A
Mn831       O838   2.110       .  S
Mn831       O846   2.087       .  S
Mn831       O836   1.962       .  S
C832        C881   1.495       .  S
C832        O848   1.270       .  A
O833       Mn845   1.950       .  S
O833        C835   1.217       .  S
C835       C1101   1.486       .  S
O836      Mn1204   1.954       .  S
O837       Mn840   2.091       .  S
C842       C1054   1.476       .  S
O843      Mn1210   2.105   1_545  S
O844      Mn1195   2.094   1_545  S
O844        C849   1.250       .  A
Mn845       O848   2.080       .  S
O847        C849   1.219       .  S
C849        C861   1.482       .  S
C850        C851   1.406       .  A
C850        C855   1.398       .  A
C850        F868   1.358       .  S
C851        C856   1.486       .  S
C851        C852   1.405       .  A
C852        C853   1.401       .  A
C853        C854   1.412       .  A
C854        C855   1.410       .  A
C855        F858   1.357       .  S
C856        C859   1.406       .  A
C856        C863   1.407       .  A
C859        C860   1.395       .  A
C859        F864   1.358       .  S
C860        C861   1.408       .  A
C861        C862   1.409       .  A
C862        C863   1.403       .  A
C862        F865   1.358       .  S
C863        F867   1.358       .  S
C870        C871   1.402       .  A
C870        C875   1.401       .  A
C870        F888   1.358       .  S
C871        C876   1.481       .  S
C872        C873   1.399       .  A
C872        F877   1.358       .  S
C873        F889   1.357       .  S
C874        C875   1.414       .  A
C875        F878   1.358       .  S
C876        C879   1.404   1_655  A
C876        C883   1.401       .  A
C879        C880   1.402       .  A
C879        F884   1.358       .  S
C880        C881   1.412   1_455  A
C880        F886   1.358       .  S
C881        C882   1.417       .  A
C882        C883   1.397       .  A
C882        F885   1.358       .  S
C883        F887   1.358       .  S
C890        C895   1.403       .  A
C890        F908   1.358       .  S
C891        C896   1.480   1_655  S
C891        C892   1.404       .  A
C892        C893   1.392       .  A
C892        F897   1.358       .  S
C893        C894   1.408       .  A
C893        F909   1.358       .  S
C895        F898   1.358       .  S
C896        C899   1.404   1_455  A
C899        C900   1.399       .  A
C899        F904   1.358       .  S
C900        C901   1.410   1_655  A
C900        F906   1.357       .  S
C902        C903   1.397       .  A
C902        F905   1.358       .  S
C903        F907   1.358       .  S
C910        C911   1.403   1_455  A
C910        C915   1.398       .  A
C911        C916   1.483       .  S
C911        C912   1.405       .  A
C912        C913   1.399       .  A
C912        F917   1.358       .  S
C913        C914   1.412       .  A
C913        F929   1.358       .  S
C914        C915   1.414   1_655  A
C916        C923   1.407       .  A
C919        C920   1.396       .  A
C919        F924   1.358       .  S
C920        F926   1.358       .  S
C921        C922   1.408   1_655  A
C922        C923   1.402   1_455  A
C922        F925   1.358       .  S
C923        F927   1.358   1_655  S
C930        C935   1.400       .  A
C930        F948   1.358       .  S
C931        C936   1.481       .  S
C931        C932   1.404       .  A
C932        C933   1.398       .  A
C932        F937   1.358       .  S
C933        C934   1.408       .  A
C933        F949   1.358       .  S
C935        F938   1.358       .  S
C936        C943   1.404       .  A
C939        C940   1.399   1_554  A
C939        F944   1.358       .  S
C940        F946   1.357       .  S
C941        C942   1.410       .  A
C942        C943   1.399   1_556  A
C942        F945   1.358       .  S
C943        F947   1.358       .  S
C950        C951   1.402       .  A
C950        C955   1.399       .  A
C950        F968   1.358       .  S
C951        C956   1.481       .  S
C951        C952   1.403       .  A
C952        C953   1.401       .  A
C952        F957   1.358       .  S
C953        C954   1.416       .  A
C953        F969   1.358       .  S
C954        C955   1.414       .  A
C955        F958   1.357       .  S
C956       C1342   1.404       .  A
C956        C963   1.403       .  A
C959       C1339   1.404       .  A
C959        C960   1.403       .  A
C959        F964   1.358   1_565  S
C960       C1344   1.411       .  A
C960        F966   1.358   1_565  S
C961       C1343   1.411       .  A
C961        C962   1.411       .  A
C962        C963   1.396       .  A
C962        F965   1.358       .  S
C963        F967   1.358       .  S
C970        C971   1.406       .  A
C970        C975   1.396       .  A
C970        F988   1.358       .  S
C971        C976   1.480       .  S
C971        C972   1.404       .  A
C972        C973   1.398       .  A
C972        F977   1.358       .  S
C973        C974   1.409       .  A
C973        F989   1.358       .  S
C974        C975   1.407       .  A
C975        F978   1.358       .  S
C976        C979   1.404       .  A
C976       C1366   1.407       .  A
C979        C980   1.392       .  A
C979        F984   1.358       .  S
C980        C981   1.409       .  A
C980        F986   1.359       .  S
C981       C1365   1.408       .  A
C982       C1364   1.408       .  A
C982        C983   1.401       .  A
C982        F985   1.358   1_565  S
C983       C1359   1.407       .  A
C983        F987   1.358   1_565  S
C990        C991   1.404       .  A
C990        C995   1.399       .  A
C990       F1008   1.358       .  S
C991        C996   1.481       .  S
C991        C992   1.403       .  A
C992        C993   1.399       .  A
C992        F997   1.358       .  S
C993        C994   1.413       .  A
C993       F1009   1.358       .  S
C994        C995   1.412       .  A
C995        F998   1.358       .  S
C996        C999   1.404       .  A
C996       C1003   1.406       .  A
C999       C1000   1.396       .  A
C999       F1387   1.358       .  S
C1000      C1001   1.408       .  A
C1000      F1389   1.358       .  S
C1001      C1002   1.409       .  A
C1002      C1003   1.402       .  A
C1002      F1005   1.358       .  S
C1003      F1007   1.358       .  S
F1004      C1382   1.358       .  S
F1006      C1383   1.358       .  S
C1010      C1011   1.405       .  A
C1010      C1015   1.403       .  A
C1010      F1028   1.357       .  S
C1011      C1016   1.473       .  S
C1011      C1012   1.400       .  A
C1012      C1013   1.391       .  A
C1012      F1017   1.358       .  S
C1013      C1014   1.410       .  A
C1013      F1029   1.358       .  S
C1014      C1015   1.408       .  A
C1015      F1018   1.358       .  S
C1016      C1019   1.403       .  A
C1016      C1023   1.403       .  A
C1019      C1020   1.399       .  A
C1019      F1407   1.358       .  S
C1020      C1021   1.409       .  A
C1020      F1409   1.358       .  S
C1021      C1022   1.407       .  A
C1022      C1023   1.396       .  A
C1022      F1025   1.358       .  S
C1023      F1027   1.358       .  S
F1024      C1402   1.358   1_545  S
F1026      C1403   1.358   1_545  S
C1030      C1031   1.403       .  A
C1030      C1035   1.397       .  A
C1030      F1048   1.358       .  S
C1031      C1036   1.477       .  S
C1031      C1032   1.404       .  A
C1032      C1033   1.398       .  A
C1032      F1037   1.358       .  S
C1033      C1034   1.407       .  A
C1033      F1049   1.358       .  S
C1034      C1035   1.410       .  A
C1035      F1038   1.358       .  S
C1036      C1422   1.402       .  A
C1036      C1043   1.403       .  A
C1039      C1419   1.402   1_545  A
C1039      C1040   1.397   1_554  A
C1039      F1044   1.358       .  S
C1040      C1424   1.413   1_545  A
C1040      F1046   1.358       .  S
C1041      C1423   1.413       .  A
C1041      C1042   1.410       .  A
C1042      C1043   1.398   1_556  A
C1042      F1045   1.357       .  S
C1043      F1047   1.358       .  S
C1050      C1051   1.405       .  A
C1050      C1055   1.401       .  A
C1050      F1068   1.358       .  S
C1051      C1056   1.475       .  S
C1051      C1052   1.402       .  A
C1052      C1053   1.391       .  A
C1052      F1057   1.358       .  S
C1053      C1054   1.409       .  A
C1053      F1069   1.358       .  S
C1054      C1055   1.408       .  A
C1055      F1058   1.358       .  S
C1056      C1059   1.402       .  A
C1056      C1063   1.405       .  A
C1059      C1060   1.398       .  A
C1059      F1064   1.358       .  S
C1060      C1061   1.409       .  A
C1060      F1066   1.358       .  S
C1061      C1062   1.406       .  A
C1062      C1063   1.396       .  A
C1062      F1065   1.358       .  S
C1063      F1067   1.358       .  S
C1070      C1071   1.402       .  A
C1070      C1075   1.401       .  A
C1070      F1088   1.358       .  S
C1071      C1076   1.476       .  S
C1071      C1072   1.401       .  A
C1072      C1073   1.396       .  A
C1072      F1077   1.358       .  S
C1073      C1074   1.412       .  A
C1073      F1089   1.358       .  S
C1074      C1075   1.413       .  A
C1075      F1078   1.357       .  S
C1076      C1079   1.402       .  A
C1076      C1083   1.401       .  A
C1079      C1080   1.397       .  A
C1079      F1084   1.358       .  S
C1080      C1081   1.413       .  A
C1080      F1086   1.358       .  S
C1081      C1082   1.415       .  A
C1082      C1083   1.398       .  A
C1082      F1085   1.358       .  S
C1083      F1087   1.358       .  S
C1090      C1091   1.405       .  A
C1090      C1095   1.395       .  A
C1090      F1108   1.358       .  S
C1091      C1096   1.483       .  S
C1091      C1092   1.406       .  A
C1092      C1093   1.403       .  A
C1092      F1097   1.358       .  S
C1093      C1094   1.410       .  A
C1093      F1109   1.358       .  S
C1094      C1095   1.406       .  A
C1095      F1098   1.358       .  S
C1096      C1099   1.403       .  A
C1096      C1103   1.407       .  A
C1099      C1100   1.394       .  A
C1099      F1104   1.359       .  S
C1100      C1101   1.412       .  A
C1100      F1106   1.358       .  S
C1101      C1102   1.409       .  A
C1102      C1103   1.404       .  A
C1102      F1105   1.357       .  S
C1103      F1107   1.357       .  S
C1110      C1111   1.402       .  A
C1110      C1115   1.402       .  A
C1110      F1128   1.358       .  S
C1111      C1116   1.481       .  S
C1111      C1112   1.402       .  A
C1112      C1113   1.401       .  A
C1112      F1117   1.358       .  S
C1113      C1114   1.414       .  A
C1113      F1129   1.356       .  S
C1114      C1115   1.417       .  A
C1115      F1118   1.358       .  S
C1116      C1119   1.399       .  A
C1116      C1123   1.404       .  A
C1119      C1120   1.396       .  A
C1119      F1124   1.358       .  S
C1120      C1121   1.415       .  A
C1120      F1126   1.357       .  S
C1121      C1122   1.415       .  A
C1122      C1123   1.407       .  A
C1122      F1125   1.357       .  S
C1123      F1127   1.357       .  S
C1130      C1131   1.408       .  A
C1130      C1135   1.398   1_554  A
C1130      F1148   1.358       .  S
C1131      C1136   1.485       .  S
C1131      C1132   1.407       .  A
C1132      C1133   1.398   1_554  A
C1132      F1137   1.358       .  S
C1133      C1134   1.406       .  A
C1133      F1149   1.358       .  S
C1134      C1135   1.404       .  A
C1135      F1138   1.358       .  S
C1136      C1139   1.404       .  A
C1136      C1143   1.404       .  A
C1139      C1140   1.399       .  A
C1139      F1144   1.358       .  S
C1140      C1141   1.412       .  A
C1140      F1146   1.357       .  S
C1141      C1142   1.415       .  A
C1142      C1143   1.399       .  A
C1142      F1145   1.358       .  S
C1143      F1147   1.358       .  S
C1150      N1151   1.362       .  A
C1150      N1155   1.357       .  A
C1150      C1504   1.497       .  S
N1151      C1152   1.365       .  A
C1152      N1153   1.360       .  A
C1152      C1524   1.494       .  S
N1153      C1154   1.356       .  A
C1154      N1155   1.356       .  A
C1154      C1477   1.480       .  S
C1156      N1157   1.360       .  A
C1156      N1161   1.359       .  A
C1156      C1457   1.488       .  S
N1157      C1158   1.360       .  A
C1158      N1159   1.356       .  A
C1158      C1517   1.474       .  S
N1159      C1160   1.355       .  A
C1160      N1161   1.357       .  A
C1160      C1444   1.476       .  S
C1162      N1163   1.358       .  A
C1162      N1167   1.360       .  A
C1162      C1384   1.481       .  S
N1163      C1164   1.357       .  A
C1164      N1165   1.355       .  A
C1164      C1404   1.476       .  S
N1165      C1166   1.358       .  A
C1166      N1167   1.361       .  A
C1166      C1417   1.479       .  S
C1168      N1169   1.361       .  A
C1168      N1173   1.358       .  A
C1168      C1344   1.488       .  S
N1169      C1170   1.362       .  A
C1170      N1171   1.357       .  A
C1170      C1424   1.485       .  S
N1171      C1172   1.355       .  A
C1172      N1173   1.356       .  A
C1172      C1357   1.479       .  S
C1174      N1175   1.357       .  A
C1174      N1179   1.360       .  A
C1174      C1304   1.482       .  S
N1175      C1176   1.356       .  A
C1176      N1177   1.357       .  A
C1176      C1284   1.484   1_655  S
N1177      C1178   1.360       .  A
C1178      N1179   1.361       .  A
C1178      C1317   1.479       .  S
C1180      N1181   1.360       .  A
C1180      N1185   1.358       .  A
C1180      C1257   1.491       .  S
N1181      C1182   1.361       .  A
C1182      N1183   1.359       .  A
C1182      C1237   1.490       .  S
N1183      C1184   1.359       .  A
C1184      N1185   1.358       .  A
C1184      C1324   1.483       .  S
O1186     Mn1212   2.092       .  S
C1187      C1464   1.490       .  S
C1187      O1220   1.271       .  A
C1187      O1217   1.270       .  A
O1188     Mn1195   2.165       .  S
O1188     Mn1206   2.119       .  S
O1188     Mn1210   2.165       .  S
O1189     Mn1223   2.101       .  S
O1189      C1199   1.273       .  A
O1190     Mn1206   2.092       .  S
O1190      C1213   1.272       .  A
O1191     Mn1210   2.110       .  S
O1191      C1218   1.253       .  A
O1192     Mn1212   1.960       .  S
O1192      C1208   1.218       .  S
C1193      C1397   1.477       .  S
C1193      O1196   1.252       .  A
C1193      O1219   1.216       .  S
O1194     Mn1195   2.161       .  S
O1194     Mn1228   2.121       .  S
O1194     Mn1210   2.169       .  S
Mn1195     O1200   2.099       .  S
O1197     Mn1204   2.105       .  S
O1197      C1199   1.274       .  A
C1198      C1364   1.477       .  S
C1198      O1224   1.251       .  A
C1198      O1211   1.216       .  S
C1199      C1497   1.500       .  S
O1200      C1225   1.252       .  A
O1201     Mn1204   2.121       .  S
O1201     Mn1223   2.123       .  S
O1202     Mn1206   1.957       .  S
O1202     Mn1228   1.957       .  S
O1202      C1225   1.218       .  S
C1203      C1297   1.491       .  S
C1203      O1205   1.272       .  A
Mn1204     O1217   2.088       .  S
O1205     Mn1228   2.096       .  S
Mn1206     O1222   2.099       .  S
Mn1206     O1216   1.967       .  S
O1207     Mn1212   2.094       .  S
C1208      C1277   1.476       .  S
C1208      O1226   1.254       .  A
C1209      C1337   1.496       .  S
C1209      O1222   1.273       .  A
O1211     Mn1214   1.959       .  S
Mn1212     O1230   1.960       .  S
C1213      C1377   1.489       .  S
Mn1214     O1221   2.109       .  S
Mn1214     O1229   2.088       .  S
Mn1214     O1219   1.961       .  S
C1215      C1264   1.495       .  S
C1215      O1231   1.270       .  A
O1216     Mn1228   1.950       .  S
O1216      C1218   1.217       .  S
C1218      C1484   1.486       .  S
O1220     Mn1223   2.090       .  S
C1225      C1437   1.476       .  S
O1227      C1232   1.250       .  A
Mn1228     O1231   2.080       .  S
O1230      C1232   1.219       .  S
C1232      C1244   1.482       .  S
C1233      C1234   1.406       .  A
C1233      C1238   1.398       .  A
C1233      F1251   1.358       .  S
C1234      C1239   1.486       .  S
C1234      C1235   1.405       .  A
C1235      C1236   1.401       .  A
C1236      C1237   1.412       .  A
C1237      C1238   1.410       .  A
C1238      F1241   1.357       .  S
C1239      C1242   1.406       .  A
C1239      C1246   1.407       .  A
C1242      C1243   1.395       .  A
C1242      F1247   1.358       .  S
C1243      C1244   1.408       .  A
C1244      C1245   1.409       .  A
C1245      C1246   1.403       .  A
C1245      F1248   1.358       .  S
C1246      F1250   1.358       .  S
C1253      C1254   1.402       .  A
C1253      C1258   1.401       .  A
C1253      F1271   1.358       .  S
C1254      C1259   1.481       .  S
C1255      C1256   1.399       .  A
C1255      F1260   1.358       .  S
C1256      F1272   1.357       .  S
C1257      C1258   1.414       .  A
C1258      F1261   1.358       .  S
C1259      C1262   1.404   1_655  A
C1259      C1266   1.401       .  A
C1262      C1263   1.402       .  A
C1262      F1267   1.358       .  S
C1263      C1264   1.412   1_455  A
C1263      F1269   1.358       .  S
C1264      C1265   1.417       .  A
C1265      C1266   1.397       .  A
C1265      F1268   1.358       .  S
C1266      F1270   1.358       .  S
C1273      C1278   1.403       .  A
C1273      F1291   1.358       .  S
C1274      C1279   1.480   1_655  S
C1274      C1275   1.404       .  A
C1275      C1276   1.392       .  A
C1275      F1280   1.358       .  S
C1276      C1277   1.408       .  A
C1276      F1292   1.358       .  S
C1278      F1281   1.358       .  S
C1279      C1282   1.404   1_455  A
C1282      C1283   1.399       .  A
C1282      F1287   1.358       .  S
C1283      C1284   1.410   1_655  A
C1283      F1289   1.357       .  S
C1285      C1286   1.397       .  A
C1285      F1288   1.358       .  S
C1286      F1290   1.358       .  S
C1293      C1294   1.403   1_455  A
C1293      C1298   1.398       .  A
C1294      C1299   1.482       .  S
C1294      C1295   1.405       .  A
C1295      C1296   1.399       .  A
C1295      F1300   1.358       .  S
C1296      C1297   1.413       .  A
C1296      F1312   1.358       .  S
C1297      C1298   1.414   1_655  A
C1299      C1306   1.406       .  A
C1302      C1303   1.396       .  A
C1302      F1307   1.358       .  S
C1303      F1309   1.358       .  S
C1304      C1305   1.408   1_655  A
C1305      C1306   1.402   1_455  A
C1305      F1308   1.358       .  S
C1306      F1310   1.358   1_655  S
C1313      C1318   1.400       .  A
C1313      F1331   1.358       .  S
C1314      C1319   1.481       .  S
C1314      C1315   1.404       .  A
C1315      C1316   1.398       .  A
C1315      F1320   1.358       .  S
C1316      C1317   1.408       .  A
C1316      F1332   1.358       .  S
C1318      F1321   1.358       .  S
C1319      C1326   1.404       .  A
C1322      C1323   1.399   1_554  A
C1322      F1327   1.358       .  S
C1323      F1329   1.358       .  S
C1324      C1325   1.410       .  A
C1325      C1326   1.399   1_556  A
C1325      F1328   1.358       .  S
C1326      F1330   1.358       .  S
C1333      C1334   1.402       .  A
C1333      C1338   1.399       .  A
C1333      F1351   1.358       .  S
C1334      C1339   1.481       .  S
C1334      C1335   1.403   1_565  A
C1335      C1336   1.401       .  A
C1335      F1340   1.358       .  S
C1336      C1337   1.416   1_545  A
C1336      F1352   1.358       .  S
C1337      C1338   1.414       .  A
C1338      F1341   1.357       .  S
C1339      C1346   1.403       .  A
C1342      C1343   1.403       .  A
C1342      F1347   1.358       .  S
C1343      F1349   1.358       .  S
C1344      C1345   1.411       .  A
C1345      C1346   1.396       .  A
C1345      F1348   1.358       .  S
C1346      F1350   1.358       .  S
C1353      C1354   1.406   1_545  A
C1353      C1358   1.396       .  A
C1353      F1371   1.358       .  S
C1354      C1359   1.480       .  S
C1354      C1355   1.404       .  A
C1355      C1356   1.398       .  A
C1355      F1360   1.358       .  S
C1356      C1357   1.409       .  A
C1356      F1372   1.358       .  S
C1357      C1358   1.407   1_565  A
C1358      F1361   1.358       .  S
C1359      C1362   1.404       .  A
C1362      C1363   1.392       .  A
C1362      F1367   1.358       .  S
C1363      C1364   1.409       .  A
C1363      F1369   1.359       .  S
C1365      C1366   1.401       .  A
C1365      F1368   1.358       .  S
C1366      F1370   1.358       .  S
C1373      C1374   1.404       .  A
C1373      C1378   1.399       .  A
C1373      F1391   1.358       .  S
C1374      C1379   1.481       .  S
C1374      C1375   1.403   1_565  A
C1375      C1376   1.399       .  A
C1375      F1380   1.358       .  S
C1376      C1377   1.413   1_545  A
C1376      F1392   1.358       .  S
C1377      C1378   1.412       .  A
C1378      F1381   1.358       .  S
C1379      C1382   1.404       .  A
C1379      C1386   1.406       .  A
C1382      C1383   1.396       .  A
C1383      C1384   1.408       .  A
C1384      C1385   1.409       .  A
C1385      C1386   1.402       .  A
C1385      F1388   1.358   1_565  S
C1386      F1390   1.358   1_565  S
C1393      C1394   1.405       .  A
C1393      C1398   1.403       .  A
C1393      F1411   1.357       .  S
C1394      C1399   1.473       .  S
C1394      C1395   1.400       .  A
C1395      C1396   1.391       .  A
C1395      F1400   1.358       .  S
C1396      C1397   1.410       .  A
C1396      F1412   1.358       .  S
C1397      C1398   1.408       .  A
C1398      F1401   1.358       .  S
C1399      C1402   1.403       .  A
C1399      C1406   1.403       .  A
C1402      C1403   1.399       .  A
C1403      C1404   1.409       .  A
C1404      C1405   1.407       .  A
C1405      C1406   1.396       .  A
C1405      F1408   1.358       .  S
C1406      F1410   1.358       .  S
C1413      C1414   1.403       .  A
C1413      C1418   1.397       .  A
C1413      F1431   1.358       .  S
C1414      C1419   1.477       .  S
C1414      C1415   1.404   1_565  A
C1415      C1416   1.398       .  A
C1415      F1420   1.358       .  S
C1416      C1417   1.407   1_545  A
C1416      F1432   1.358       .  S
C1417      C1418   1.410       .  A
C1418      F1421   1.358       .  S
C1419      C1426   1.403       .  A
C1422      C1423   1.397   1_554  A
C1422      F1427   1.358       .  S
C1423      F1429   1.358       .  S
C1424      C1425   1.410       .  A
C1425      C1426   1.398   1_556  A
C1425      F1428   1.357       .  S
C1426      F1430   1.358       .  S
C1433      C1434   1.405       .  A
C1433      C1438   1.401       .  A
C1433      F1451   1.358       .  S
C1434      C1439   1.475       .  S
C1434      C1435   1.401       .  A
C1435      C1436   1.392       .  A
C1435      F1440   1.358       .  S
C1436      C1437   1.409       .  A
C1436      F1452   1.358       .  S
C1437      C1438   1.408       .  A
C1438      F1441   1.358       .  S
C1439      C1442   1.402       .  A
C1439      C1446   1.405       .  A
C1442      C1443   1.398       .  A
C1442      F1447   1.358       .  S
C1443      C1444   1.409       .  A
C1443      F1449   1.358       .  S
C1444      C1445   1.406       .  A
C1445      C1446   1.396       .  A
C1445      F1448   1.358       .  S
C1446      F1450   1.358       .  S
C1453      C1454   1.403       .  A
C1453      C1458   1.401       .  A
C1453      F1471   1.358       .  S
C1454      C1459   1.477       .  S
C1454      C1455   1.402       .  A
C1455      C1456   1.396       .  A
C1455      F1460   1.358       .  S
C1456      C1457   1.412       .  A
C1456      F1472   1.358       .  S
C1457      C1458   1.413       .  A
C1458      F1461   1.357       .  S
C1459      C1462   1.402       .  A
C1459      C1466   1.402       .  A
C1462      C1463   1.397       .  A
C1462      F1467   1.358       .  S
C1463      C1464   1.413       .  A
C1463      F1469   1.358       .  S
C1464      C1465   1.415       .  A
C1465      C1466   1.398       .  A
C1465      F1468   1.358       .  S
C1466      F1470   1.358       .  S
C1473      C1474   1.405       .  A
C1473      C1478   1.395       .  A
C1473      F1491   1.358       .  S
C1474      C1479   1.483       .  S
C1474      C1475   1.406       .  A
C1475      C1476   1.403       .  A
C1475      F1480   1.358       .  S
C1476      C1477   1.409       .  A
C1476      F1492   1.358       .  S
C1477      C1478   1.406       .  A
C1478      F1481   1.358       .  S
C1479      C1482   1.403       .  A
C1479      C1486   1.407       .  A
C1482      C1483   1.394       .  A
C1482      F1487   1.359       .  S
C1483      C1484   1.412       .  A
C1483      F1489   1.358       .  S
C1484      C1485   1.409       .  A
C1485      C1486   1.404       .  A
C1485      F1488   1.357       .  S
C1486      F1490   1.357       .  S
C1493      C1494   1.402       .  A
C1493      C1498   1.403       .  A
C1493      F1511   1.358       .  S
C1494      C1499   1.482       .  S
C1494      C1495   1.402       .  A
C1495      C1496   1.401       .  A
C1495      F1500   1.358       .  S
C1496      C1497   1.414       .  A
C1496      F1512   1.356       .  S
C1497      C1498   1.417       .  A
C1498      F1501   1.358       .  S
C1499      C1502   1.400       .  A
C1499      C1506   1.404       .  A
C1502      C1503   1.396       .  A
C1502      F1507   1.358       .  S
C1503      C1504   1.414       .  A
C1503      F1509   1.357       .  S
C1504      C1505   1.415       .  A
C1505      C1506   1.407       .  A
C1505      F1508   1.358       .  S
C1506      F1510   1.357       .  S
C1513      C1514   1.408       .  A
C1513      C1518   1.398   1_554  A
C1513      F1531   1.358       .  S
C1514      C1519   1.485       .  S
C1514      C1515   1.407       .  A
C1515      C1516   1.398   1_554  A
C1515      F1520   1.358       .  S
C1516      C1517   1.406       .  A
C1516      F1532   1.358       .  S
C1517      C1518   1.404       .  A
C1518      F1521   1.358       .  S
C1519      C1522   1.405       .  A
C1519      C1526   1.404       .  A
C1522      C1523   1.399       .  A
C1522      F1527   1.358       .  S
C1523      C1524   1.412       .  A
C1523      F1529   1.357       .  S
C1524      C1525   1.415       .  A
C1525      C1526   1.399       .  A
C1525      F1528   1.358       .  S
C1526      F1530   1.358       .  S
