geometry optimzed in LAMMPS
_audit_creation_date              2020-11-30 
_audit_creation_method            'lammps2cif' 
_symmetry_space_group_name_H-M    'P1' 
_symmetry_Int_Tables_number       1 
_symmetry_cell_setting            triclinic 
loop_ 
_symmetry_equiv_pos_as_xyz 
  x,y,z 
_cell_length_a                    27.90242465 
_cell_length_b                    27.821751237014688 
_cell_length_c                    27.913509756931013 
_cell_angle_alpha                 90.49316267805123 
_cell_angle_beta                  90.05857996977285 
_cell_angle_gamma                 89.85752531892838 
loop_ 
_atom_site_label 
_atom_site_type_symbol 
_atom_site_fract_x 
_atom_site_fract_y 
_atom_site_fract_z 
_atom_site_charge 
C1          C  0.84942360  0.82929851  0.82892902     0.85800
C2          C  0.88891325  0.80645904  0.85905261    -0.54400
C3          C  0.91430060  0.83892760  0.88514065     0.08800
C4          C  0.89860533  0.89110593  0.87950349     0.19700
C5          C  0.81946743  0.85943595  0.86438381    -0.55100
C6          C  0.84506943  0.89210613  0.89113493     0.08900
C7          C  0.87536212  0.86792210  0.79882402    -0.54600
C8          C  0.90104047  0.89962989  0.82601739     0.09400
H9          H  0.89567852  0.76801226  0.86042855     0.14000
H10         H  0.92095137  0.91719504  0.89930032    -0.00300
H11         H  0.78089567  0.85545632  0.86725070     0.14300
H12         H  0.87422065  0.87124923  0.76026385     0.14100
C13         C  0.97686438  0.97952679  0.48125299     0.41800
N14         N  0.95500538  0.92480206  0.42852724     0.00700
C15         C  0.74234309  0.91624493  0.29083109    -0.07200
H16         H  0.71841535  0.88906492  0.47371586     0.06200
C17         C  0.81072474  0.72977451  0.45733945    -0.07500
Co18       Co  0.86158054  0.94918279  0.37811727     0.74200
N19         N  0.78028577  0.90519322  0.43059351    -0.26700
Co20       Co  0.78175080  0.85329991  0.37673698     0.74100
C21         C  0.76338616  0.74177596  0.47836493     0.41900
N22         N  0.92985626  0.77892298  0.42567727     0.00300
N23         N  0.78546452  0.79690303  0.42754762     0.00400
N24         N  0.79269121  0.97920568  0.29422502    -0.47500
H25         H  0.90721566  0.02241008  0.46791111     0.06200
N26         N  0.81115541  0.94114599  0.43123093     0.00700
N27         N  0.78835182  0.80244909  0.32276413     0.00500
C28         C  0.77343092  0.75705932  0.26263344     0.42100
N29         N  0.96034546  0.81527477  0.42626174    -0.26200
C30         C  0.91373457  0.97964437  0.28706530    -0.07100
N31         N  0.99018816  0.93805338  0.45846420    -0.47300
N32         N  0.75692174  0.79475962  0.28835171    -0.47500
C33         C  0.95594191  0.96356499  0.26129047     0.41800
N34         N  0.80511303  0.94581732  0.32615970     0.00700
N35         N  0.96239380  0.81365501  0.32211968    -0.26200
N36         N  0.91867332  0.95540357  0.42920438    -0.26700
N37         N  0.93162737  0.77762964  0.32065068     0.00300
H38         H  0.02823174  0.82697334  0.28341934     0.06200
H39         H  0.84038542  0.71048564  0.27658351     0.06300
N40         N  0.77563719  0.90881136  0.32541000    -0.26700
N41         N  0.82126831  0.76570002  0.42633625    -0.26300
N42         N  0.94850836  0.92078983  0.32344485     0.00700
C43         C  0.76407472  0.95627788  0.48929447     0.42100
C44         C  0.99392093  0.80701081  0.45926088    -0.07600
N45         N  0.82420574  0.77145401  0.32176514    -0.26300
H46         H  0.83188222  0.69754986  0.46221295     0.06300
N47         N  0.80241803  0.97269700  0.46550559    -0.47600
H48         H  0.02519256  0.82905753  0.46564534     0.06200
C49         C  0.98407232  0.75928627  0.26523592     0.41900
C50         C  0.92904588  0.99086272  0.46135289    -0.07100
Co51       Co  0.95738839  0.86883052  0.37531375     0.73800
N52         N  0.94167294  0.74496344  0.45612308    -0.47300
C53         C  0.75384855  0.96295696  0.26929660     0.42200
N54         N  0.97634844  0.92754651  0.28599531    -0.47300
Co55       Co  0.87691299  0.77266672  0.37377379     0.73900
C56         C  0.81790174  0.74112833  0.28495284    -0.07600
C57         C  0.74922501  0.91138080  0.46654144    -0.07100
N58         N  0.91195821  0.95100328  0.32486314    -0.26700
N59         N  0.75063805  0.78387022  0.45748104    -0.47400
H60         H  0.71225414  0.89295935  0.28322637     0.06200
C61         C  0.99686070  0.80496801  0.28901016    -0.07600
Cl62       Cl  0.86947058  0.86096187  0.37634188    -0.50600
C63         C  0.98136521  0.76028352  0.47893891     0.42000
H64         H  0.88872066  0.00818435  0.27889171     0.06200
N65         N  0.94350835  0.74445811  0.28774700    -0.47300
C66         C  0.76091799  0.48924362  0.94754270     0.41800
N67         N  0.77941132  0.42156930  0.91603457     0.00700
C68         C  0.99809956  0.30589085  0.92562554    -0.07200
H69         H  0.02020562  0.47946736  0.89685185     0.06200
C70         C  0.90853305  0.45375788  0.73543397    -0.07500
Co71       Co  0.87258629  0.38292044  0.95212156     0.74200
N72         N  0.95497435  0.43929003  0.90917126    -0.26700
Co73       Co  0.95556554  0.38237493  0.85712729     0.74100
C74         C  0.95048210  0.48226825  0.74650720     0.41900
N75         N  0.80115374  0.40954644  0.77626895     0.00300
N76         N  0.94282801  0.42917297  0.80052802     0.00400
N77         N  0.94328980  0.30703116  0.98546708    -0.47500
H78         H  0.82873526  0.48917180  0.99512359     0.06200
N79         N  0.92371141  0.44001171  0.94482872     0.00700
N80         N  0.95918918  0.32533360  0.80439339     0.00500
C81         C  0.98414723  0.27238483  0.75141483     0.42100
N82         N  0.76911070  0.40780222  0.81087406    -0.26200
C83         C  0.81298990  0.29659420  0.00122264    -0.07100
N84         N  0.74658897  0.45571706  0.91578854    -0.47300
N85         N  0.99724876  0.29908497  0.79063431    -0.47500
C86         C  0.76971295  0.26772015  0.98941079     0.41800
N87         N  0.93059082  0.33566594  0.95029443     0.00700
N88         N  0.78642023  0.30452392  0.82448304    -0.26200
N89         N  0.81474133  0.43028403  0.94646197    -0.26700
N90         N  0.81731683  0.30551536  0.78884709     0.00300
H91         H  0.73429062  0.25272814  0.84680634     0.06200
H92         H  0.91206419  0.27516463  0.71172096     0.06300
N93         N  0.96212889  0.33570685  0.91475253    -0.26700
N94         N  0.90681825  0.42165820  0.77059635    -0.26300
N95         N  0.78749480  0.31698544  0.93112760     0.00700
C96         C  0.97500966  0.49681615  0.96395911     0.42100
C97         C  0.73184187  0.43656024  0.79867498    -0.07600
N98         N  0.92225941  0.31859339  0.77548313    -0.26300
H99         H  0.88546970  0.45453065  0.70427024     0.06300
N100        N  0.93471487  0.47319766  0.97806790    -0.47600
H101        H  0.69958725  0.44185525  0.81953274     0.06200
C102        C  0.78242336  0.23736881  0.78097713     0.41900
C103        C  0.80616620  0.47247640  0.96824431    -0.07100
Co104      Co  0.77982339  0.36240927  0.87081174     0.73800
N105        N  0.78813638  0.43876258  0.74091115    -0.47300
C106        C  0.98567218  0.28756091  0.97281843     0.42200
N107        N  0.75641414  0.28344723  0.94535119    -0.47300
Co108      Co  0.86159769  0.36377297  0.77741338     0.73900
C109        C  0.93416483  0.28544075  0.74194339    -0.07600
C110        C  0.98823752  0.47383361  0.91792988    -0.07100
N111        N  0.82152546  0.32551481  0.96302344    -0.26700
N112        N  0.97065916  0.46472055  0.78667750    -0.47400
H113        H  0.03005485  0.30028508  0.90438965     0.06200
C114        C  0.76289710  0.26279992  0.82283749    -0.07600
Cl115      Cl  0.86763776  0.37273863  0.86456869    -0.50600
C116        C  0.74461217  0.45750108  0.75211162     0.42000
H117        H  0.83335602  0.29688004  0.03422059     0.06200
N118        N  0.81562102  0.26653664  0.76187754    -0.47300
C119        C  0.48457069  0.98569066  0.97717189     0.41800
N120        N  0.43031274  0.96346760  0.92485028     0.00700
C121        C  0.29372170  0.74908293  0.92738941    -0.07200
H122        H  0.47647251  0.72978756  0.89317895     0.06200
C123        C  0.45875576  0.80819593  0.73741105    -0.07500
Co124      Co  0.37772058  0.87255094  0.95339805     0.74200
N125        N  0.43049170  0.78832681  0.91233752    -0.26700
Co126      Co  0.37654489  0.78707021  0.86137126     0.74100
C127        C  0.47729841  0.76017946  0.74976980     0.41900
N128        N  0.43136705  0.92869099  0.78215600     0.00300
N129        N  0.42710802  0.78577207  0.80441937     0.00400
N130        N  0.29656229  0.80191607  0.98887372    -0.47500
H131        H  0.46919322  0.91876813  0.02293151     0.06200
N132        N  0.43138002  0.82104872  0.94688589     0.00700
N133        N  0.32304074  0.79306061  0.81104827     0.00500
C134        C  0.26140745  0.77963442  0.76850659     0.42100
N135        N  0.43239062  0.95989051  0.81804956    -0.26200
C136        C  0.28629629  0.93240868  0.97965518    -0.07100
N137        N  0.46198387  0.99799392  0.93576866    -0.47300
N138        N  0.28674836  0.76338503  0.80596042    -0.47500
C139        C  0.26372124  0.97535065  0.96038554     0.41800
N140        N  0.32604390  0.81525581  0.95347462     0.00700
N141        N  0.32713846  0.96787354  0.81130824    -0.26200
N142        N  0.42967726  0.92884678  0.95688498    -0.26700
N143        N  0.32580550  0.93475556  0.77718642     0.00300
H144        H  0.28960742  0.03585546  0.81940900     0.06200
H145        H  0.27725985  0.84332337  0.71890008     0.06300
N146        N  0.32570199  0.78409989  0.91753581    -0.26700
N147        N  0.42782296  0.82078683  0.77281728    -0.26300
N148        N  0.32561050  0.95995100  0.91923934     0.00700
C149        C  0.49547310  0.77978714  0.95724400     0.42100
C150        C  0.47161449  0.98663042  0.81461920    -0.07600
N151        N  0.32348643  0.82724392  0.77847578    -0.26300
H152        H  0.46424834  0.82808460  0.70474841     0.06300
N153        N  0.46944596  0.81705534  0.97453969    -0.47600
H154        H  0.48138752  0.01589314  0.83842332     0.06200
C155        C  0.27209355  0.98740131  0.75404709     0.41900
C156        C  0.46272986  0.93952759  0.99097382    -0.07100
Co157      Co  0.37884023  0.96367177  0.86837605     0.73800
N158        N  0.46732541  0.93445438  0.75215280    -0.47300
C159        C  0.27422791  0.76037179  0.97502786     0.42200
N160        N  0.29038244  0.99117455  0.92393143    -0.47300
Co161      Co  0.37720059  0.87805674  0.77672407     0.73900
C162        C  0.28572670  0.82166166  0.74978455    -0.07600
C163        C  0.46902567  0.76016076  0.91626863    -0.07100
N164        N  0.32449345  0.92538275  0.95160027    -0.26700
N165        N  0.45488800  0.74872323  0.79136822    -0.47400
H166        H  0.28769226  0.71732642  0.90560632     0.06200
C167        C  0.29514710  0.00277160  0.79951043    -0.07600
Cl168      Cl  0.37740756  0.87535262  0.86505658    -0.50600
C169        C  0.49377546  0.97084462  0.77015622     0.42000
H170        H  0.27629872  0.91087757  0.01013205     0.06200
N171        N  0.29423060  0.94518522  0.74261558    -0.47300
C172        C  0.40429195  0.33823088  0.91444747     0.85800
C173        C  0.42741544  0.38162630  0.89000473    -0.54400
C174        C  0.39779200  0.40438037  0.85895144     0.08800
C175        C  0.34777291  0.38186496  0.85463659     0.19700
C176        C  0.35871275  0.35799322  0.93726559    -0.55100
C177        C  0.32893722  0.38035528  0.90604918     0.08900
C178        C  0.38809324  0.30675845  0.87196408    -0.54600
C179        C  0.35693420  0.32900288  0.84146463     0.09400
H180        H  0.46519058  0.39049095  0.89123044     0.14000
H181        H  0.32320762  0.40116198  0.83026444    -0.00300
H182        H  0.35221363  0.35704255  0.97562247     0.14300
H183        H  0.39818380  0.26920189  0.86802577     0.14100
C184        C  0.40153548  0.84906603  0.40171571     0.85800
C185        C  0.36007713  0.87585592  0.42700508    -0.54400
C186        C  0.33027585  0.89931629  0.39600248     0.08800
C187        C  0.34520414  0.89591430  0.34353245     0.19700
C188        C  0.37620623  0.81754739  0.36435554    -0.55100
C189        C  0.34695022  0.84190710  0.33400887     0.08900
C190        C  0.42671464  0.88840836  0.37379255    -0.54600
C191        C  0.39752623  0.91218891  0.34295598     0.09400
H192        H  0.35377054  0.87734127  0.46517041     0.14000
H193        H  0.32128419  0.91588513  0.31887120    -0.00300
H194        H  0.37958649  0.77860525  0.36341301     0.14300
H195        H  0.46516342  0.89443434  0.37527982     0.14100
C196        C  0.89380119  0.40451562  0.32330946     0.85800
C197        C  0.85368384  0.42596553  0.35342969    -0.54400
C198        C  0.83446562  0.39471637  0.38500837     0.08800
C199        C  0.85762068  0.34466606  0.38459208     0.19700
C200        C  0.93047136  0.38430271  0.35916863    -0.55100
C201        C  0.91132644  0.35293321  0.39073937     0.08900
C202        C  0.87298431  0.35893528  0.30028746    -0.54600
C203        C  0.85328103  0.32791138  0.33242157     0.09400
H204        H  0.84146683  0.46293185  0.35015591     0.14000
H205        H  0.84321180  0.31937338  0.41142620    -0.00300
H206        H  0.96875018  0.39121837  0.35743697     0.14300
H207        H  0.87585823  0.34994902  0.26265801     0.14100
C208        C  0.01501758  0.23844743  0.72146613     0.41800
N209        N  0.06690455  0.21365017  0.66767069     0.00700
C210        C  0.05411952  0.99440567  0.53802757    -0.07200
H211        H  0.08988971  0.98044502  0.72099782     0.06200
C212        C  0.25125955  0.06218844  0.69723151    -0.07500
Co213      Co  0.03437398  0.12168996  0.61830712     0.74200
N214        N  0.07465756  0.03941303  0.67418246    -0.26700
Co215      Co  0.12427720  0.03419765  0.61930882     0.74100
C216        C  0.23986206  0.01643757  0.72054201     0.41900
N217        N  0.20944535  0.17782151  0.66337386     0.00300
N218        N  0.18385763  0.03559267  0.66857502     0.00400
N219        N  0.99666949  0.05128255  0.53777428    -0.47500
H220        H  0.96678060  0.17305542  0.70621135     0.06200
N221        N  0.04062378  0.07252242  0.67367256     0.00700
N222        N  0.17218027  0.03579784  0.56359741     0.00500
C223        C  0.20614845  0.02033594  0.49694585     0.42100
N224        N  0.17554515  0.21113635  0.66363938    -0.26200
C225        C  0.00170325  0.18064769  0.52975396    -0.07100
N226        N  0.05663627  0.24954003  0.69838120    -0.47300
N227        N  0.17178936  0.00566070  0.52703849    -0.47500
C228        C  0.01862545  0.22417405  0.50669174     0.41800
N229        N  0.03200491  0.06293312  0.56830259     0.00700
N230        N  0.17543395  0.21124553  0.55893993    -0.26200
N231        N  0.03382625  0.17976485  0.66806936    -0.26700
N232        N  0.20945287  0.17809924  0.55815340     0.00300
H233        H  0.16626199  0.27721688  0.51921144     0.06200
H234        H  0.25874662  0.08374707  0.50627647     0.06300
N235        N  0.06599051  0.02981754  0.56953197    -0.26700
N236        N  0.21551622  0.07062527  0.66550480    -0.26300
N237        N  0.06718213  0.20641486  0.56251772     0.00700
C238        C  0.02671921  0.03190968  0.73689839     0.42100
C239        C  0.18406621  0.24220422  0.69926934    -0.07600
N240        N  0.20526270  0.06947881  0.55996325    -0.26300
H241        H  0.28333774  0.08363370  0.70103260     0.06300
N242        N  0.01109679  0.06902695  0.71030293    -0.47600
H243        H  0.16327456  0.27406780  0.70756125     0.06200
C244        C  0.23174637  0.22893100  0.50315969     0.41900
C245        C  0.99971756  0.19248355  0.70012395    -0.07100
Co246      Co  0.12123915  0.21136884  0.61320798     0.73800
N247        N  0.24137825  0.18427412  0.69770347    -0.47300
C248        C  0.00783307  0.00827525  0.51658244     0.42200
N249        N  0.05872078  0.23858138  0.52914951    -0.47300
Co250      Co  0.21082745  0.12390887  0.61163230     0.73900
C251        C  0.22922873  0.06222959  0.51899602    -0.07600
C252        C  0.06878372  0.01194291  0.71268658    -0.07100
N253        N  0.03413661  0.17239567  0.56404774    -0.26700
N254        N  0.19767064  0.00200698  0.69997691    -0.47400
H255        H  0.07433559  0.96165502  0.53226425     0.06200
C256        C  0.18615970  0.24442779  0.52531668    -0.07600
Cl257      Cl  0.12265807  0.12284649  0.61559066    -0.50600
C258        C  0.22695445  0.22359063  0.72212284     0.42000
H259        H  0.96891623  0.16073754  0.52404401     0.06200
N260        N  0.24368850  0.18756648  0.52605156    -0.47300
C261        C  0.03730247  0.75672683  0.02019715     0.41800
N262        N  0.07268558  0.68914178  0.02998365     0.00700
C263        C  0.05648314  0.53733905  0.22037087    -0.07200
H264        H  0.08119346  0.70680846  0.27468734     0.06200
C265        C  0.24249326  0.70607386  0.17040218    -0.07500
Co266      Co  0.03241857  0.63423155  0.11181988     0.74200
N267        N  0.07062402  0.67709299  0.20352962    -0.26700
Co268      Co  0.12296826  0.62166872  0.19664616     0.74100
C269        C  0.22515272  0.72857867  0.21428282     0.41900
N270        N  0.21305249  0.67561716  0.05386522     0.00300
N271        N  0.17813404  0.67136285  0.19574192     0.00400
N272        N  0.99584597  0.54939530  0.16758892    -0.47500
H273        H  0.98484688  0.74056883  0.08250285     0.06200
N274        N  0.03560641  0.68184712  0.17201010     0.00700
N275        N  0.17499225  0.56542804  0.19410192     0.00500
C276        C  0.22447724  0.50857321  0.21705236     0.42100
N277        N  0.17884629  0.67877080  0.02130787    -0.26200
C278        C  0.98999784  0.55498513  0.04079479    -0.07100
N279        N  0.07246806  0.72795764  0.00338088    -0.47300
N280        N  0.18343079  0.53281023  0.22812465    -0.47500
C281        C  0.00301406  0.53344940  0.99410680     0.41800
N282        N  0.03205320  0.57860105  0.15990858     0.00700
N283        N  0.16606536  0.57492588  0.01964512    -0.26200
N284        N  0.03954518  0.69011869  0.06365018    -0.26700
N285        N  0.20065469  0.57011340  0.05176828     0.00300
H286        H  0.14648574  0.53481102  0.95628350     0.06200
H287        H  0.27481641  0.52531648  0.15367732     0.06300
N288        N  0.06717554  0.57327710  0.19127096    -0.26700
N289        N  0.21113193  0.67086288  0.16177354    -0.26300
N290        N  0.05833609  0.58413025  0.01832984     0.00700
C291        C  0.01457427  0.72904272  0.23142820     0.42100
C292        C  0.19241590  0.71152376  0.98838952    -0.07600
N293        N  0.20857343  0.56563981  0.16078975    -0.26300
H294        H  0.27408603  0.71381857  0.14946272     0.06300
N295        N  0.00103725  0.71138747  0.18781835    -0.47600
H296        H  0.17278304  0.71995517  0.95608598     0.06200
C297        C  0.20942551  0.51122016  0.00361057     0.41900
C298        C  0.01502261  0.73114354  0.06017351    -0.07100
Co299      Co  0.11878812  0.63169911  0.02145390     0.73800
N300        N  0.24978995  0.70505424  0.04455805    -0.47300
C301        C  0.00864355  0.52288417  0.20553512     0.42200
N302        N  0.04596398  0.55385257  0.98282013    -0.47300
Co303      Co  0.20936210  0.62039286  0.10693760     0.73900
C304        C  0.24149165  0.53159972  0.17249337    -0.07600
C305        C  0.06087826  0.70588443  0.24166523    -0.07100
N306        N  0.02590701  0.58562078  0.05273435    -0.26700
N307        N  0.18533676  0.70536869  0.22808778    -0.47400
H308        H  0.07741551  0.52644629  0.25105430     0.06200
C309        C  0.16895963  0.53936679  0.98757506    -0.07600
Cl310      Cl  0.12092105  0.62690677  0.10926591    -0.50600
C311        C  0.23929459  0.73021870  0.00408743     0.42000
H312        H  0.95774963  0.54952656  0.06149093     0.06200
N313        N  0.22817870  0.53239741  0.04295369    -0.47300
C314        C  0.72389368  0.99237746  0.23464233     0.41800
N315        N  0.67461927  0.04773865  0.20976130     0.00700
C316        C  0.54428065  0.06221569  0.99351291    -0.07200
H317        H  0.72458289  0.08721181  0.97167293     0.06200
C318        C  0.72305490  0.24170935  0.07034785    -0.07500
Co319      Co  0.62718100  0.02694055  0.11413657     0.74200
N320        N  0.68230915  0.07059473  0.03374699    -0.26700
Co321      Co  0.63199259  0.12500612  0.03623858     0.74100
C322        C  0.74016014  0.23374903  0.02079048     0.41900
N323        N  0.68863902  0.18836096  0.18702716     0.00300
N324        N  0.68680159  0.17925803  0.04062549     0.00400
N325        N  0.54486464  0.00019140  0.04459610    -0.47500
H326        H  0.71140103  0.94804926  0.16513549     0.06200
N327        N  0.68179501  0.03381396  0.06361002     0.00700
N328        N  0.58208897  0.17930677  0.04620217     0.00500
C329        C  0.52416564  0.22800563  0.03841229     0.42100
N330        N  0.68211337  0.15231410  0.21674388    -0.26200
C331        C  0.53351414  0.99837808  0.16441464    -0.07100
N332        N  0.70227849  0.03442658  0.24633273    -0.47300
N333        N  0.54593020  0.18991443  0.01776452    -0.47500
C334        C  0.50888006  0.01275297  0.20811914     0.41800
N335        N  0.57697243  0.03340505  0.05745265     0.00700
N336        N  0.57711277  0.16425662  0.21542819    -0.26200
N337        N  0.67580844  0.01715387  0.17333574    -0.26700
N338        N  0.58371318  0.20212587  0.18815102     0.00300
H339        H  0.52819919  0.15089163  0.27414801     0.06200
H340        H  0.54374467  0.27016488  0.10660438     0.06300
N341        N  0.57772034  0.07049435  0.02819338    -0.26700
N342        N  0.69004084  0.20705801  0.07912043    -0.26300
N343        N  0.57073298  0.05674412  0.19986741     0.00700
C344        C  0.73827227  0.01852264  0.01460291     0.42100
C345        C  0.71895370  0.14990541  0.24687333    -0.07600
N346        N  0.58548266  0.20913295  0.08319371    -0.26300
H347        H  0.73020543  0.27214800  0.09360866     0.06300
N348        N  0.71446322  0.00111625  0.05266342    -0.47600
H349        H  0.72344268  0.12422882  0.27537590     0.06200
C350        C  0.52488722  0.22364127  0.23502291     0.41900
C351        C  0.70537816  0.98040627  0.18605531    -0.07100
Co352      Co  0.62560334  0.10541577  0.21120636     0.73800
N353        N  0.72875809  0.21188635  0.19596428    -0.47300
C354        C  0.52203397  0.01512915  0.00443575     0.42200
N355        N  0.53380716  0.04920961  0.22818127    -0.47300
Co356      Co  0.63770485  0.20255004  0.13468007     0.73900
C357        C  0.54995164  0.24100350  0.08148745    -0.07600
C358        C  0.71717213  0.06423792  0.00180187    -0.07100
N359        N  0.57189321  0.02672229  0.16302669    -0.26700
N360        N  0.71493921  0.19465619  0.00503788    -0.47400
H361        H  0.53794426  0.08495065  0.96291143     0.06200
C362        C  0.54045872  0.17416128  0.24586590    -0.07600
Cl363      Cl  0.63084959  0.11491042  0.12392426    -0.50600
C364        C  0.75014773  0.18847237  0.23245489     0.42000
H365        H  0.52500546  0.97056542  0.13855093     0.06200
N366        N  0.55412738  0.23828596  0.19921530    -0.47300
C367        C  0.58168543  0.58570885  0.12992399     0.85800
C368        C  0.55976536  0.62753150  0.10177123    -0.54400
C369        C  0.59247696  0.65973483  0.08582451     0.08800
C370        C  0.64427166  0.64677726  0.09683307     0.19700
C371        C  0.61773624  0.56375281  0.09406788    -0.55100
C372        C  0.64971010  0.59609976  0.07535463     0.08900
C373        C  0.61333122  0.60829392  0.16858680    -0.54600
C374        C  0.64541433  0.64057559  0.15166464     0.09400
H375        H  0.52193093  0.63014154  0.09294285     0.14000
H376        H  0.66947830  0.67396160  0.08293802    -0.00300
H377        H  0.61625184  0.52734291  0.08065178     0.14300
H378        H  0.61038940  0.59956357  0.20632331     0.14100
C379        C  0.15480608  0.64285522  0.65683813     0.85800
C380        C  0.18327601  0.60067478  0.63571630    -0.54400
C381        C  0.15770031  0.57337236  0.60411692     0.08800
C382        C  0.10572987  0.58980878  0.59716346     0.19700
C383        C  0.13444152  0.67015309  0.61395990    -0.55100
C384        C  0.10942789  0.64235781  0.58253607     0.08900
C385        C  0.11051241  0.61916113  0.67923942    -0.54600
C386        C  0.08484560  0.59227492  0.64757471     0.09400
H387        H  0.22120862  0.59501378  0.64246765     0.14000
H388        H  0.08472233  0.56716004  0.57178511    -0.00300
H389        H  0.13678568  0.70898946  0.61064459     0.14300
H390        H  0.09924161  0.62167760  0.71614623     0.14100
C391        C  0.26192728  0.25494484  0.46597059     0.41800
N392        N  0.28248107  0.30548205  0.40994278     0.00700
C393        C  0.49815237  0.30574266  0.27759695    -0.07200
H394        H  0.51760916  0.34799605  0.45379978     0.06200
C395        C  0.42491021  0.49487177  0.44329630    -0.07500
Co396      Co  0.37575196  0.27873833  0.36067541     0.74200
N397        N  0.45757613  0.32513166  0.41111654    -0.26700
Co398      Co  0.45524490  0.37459969  0.35678851     0.74100
C399        C  0.47144620  0.48137879  0.46479099     0.41900
N400        N  0.30807528  0.44933292  0.40973586     0.00300
N401        N  0.45212157  0.43100540  0.40783578     0.00400
N402        N  0.44913706  0.24189460  0.28413562    -0.47500
H403        H  0.33160336  0.21140066  0.45420377     0.06200
N404        N  0.42746780  0.28865528  0.41386009     0.00700
N405        N  0.44719587  0.42430728  0.30238378     0.00500
C406        C  0.45477517  0.46455454  0.23799553     0.42100
N407        N  0.27784551  0.41277824  0.40933539    -0.26200
C408        C  0.31898078  0.24230238  0.27215460    -0.07100
N409        N  0.24808051  0.29462706  0.44134031    -0.47300
N410        N  0.47504560  0.42959304  0.26451057    -0.47500
C411        C  0.27392687  0.25467635  0.24884367     0.41800
N412        N  0.43271155  0.27926301  0.30976365     0.00700
N413        N  0.27345708  0.41677025  0.30414874    -0.26200
N414        N  0.31896052  0.27514740  0.41174182    -0.26700
N415        N  0.30458667  0.45250479  0.30459093     0.00300
H416        H  0.20656629  0.40749387  0.26527560     0.06200
H417        H  0.38695868  0.50906242  0.25407500     0.06300
N418        N  0.46155647  0.31675115  0.30746734    -0.26700
N419        N  0.41593343  0.46159879  0.40856088    -0.26300
N420        N  0.28776866  0.30604546  0.30465275     0.00700
C421        C  0.47441179  0.28098636  0.47366902     0.42100
C422        C  0.24872456  0.41656645  0.44702881    -0.07600
N423        N  0.41082406  0.45476604  0.30293183    -0.26300
H424        H  0.40243247  0.52553724  0.45164893     0.06300
N425        N  0.43689997  0.26050835  0.45066525    -0.47600
H426        H  0.21965723  0.39251154  0.45565337     0.06200
C427        C  0.25203590  0.47543462  0.25102681     0.41900
C428        C  0.30932941  0.24210329  0.44593052    -0.07100
Co429      Co  0.27948230  0.36010818  0.35656387     0.73800
N430        N  0.30019974  0.47950899  0.44569502    -0.47300
C431        C  0.49017309  0.25583104  0.26196021     0.42200
N432        N  0.25661936  0.29451513  0.27077509    -0.47300
Co433      Co  0.35991224  0.45548050  0.35670252     0.73900
C434        C  0.41230588  0.48120781  0.26349286    -0.07600
C435        C  0.48833491  0.32335476  0.44743916    -0.07100
N436        N  0.32407605  0.27531896  0.30679827    -0.26700
N437        N  0.48557232  0.44145337  0.44041844    -0.47400
H438        H  0.52947090  0.32781644  0.27200871     0.06200
C439        C  0.23865646  0.42826289  0.27185515    -0.07600
Cl440      Cl  0.36748767  0.36713847  0.35749590    -0.50600
C441        C  0.26402646  0.46026385  0.47103376     0.42000
H442        H  0.34237753  0.21179135  0.26618200     0.06200
N443        N  0.29314772  0.48753986  0.27411958    -0.47300
C444        C  0.72194700  0.70175864  0.72624861     0.41800
N445        N  0.70102299  0.65635748  0.66803472     0.00700
C446        C  0.49920828  0.67322342  0.52744711    -0.07200
H447        H  0.45708066  0.66081878  0.70355817     0.06200
C448        C  0.54781152  0.49289888  0.70228134    -0.07500
Co449      Co  0.61604877  0.69532346  0.61608720     0.74200
N450        N  0.52519795  0.66574939  0.66685306    -0.26700
Co451      Co  0.52476288  0.60995831  0.61436484     0.74100
C452        C  0.50422742  0.51189635  0.72388014     0.41900
N453        N  0.66531599  0.51674312  0.66777098     0.00300
N454        N  0.52445541  0.55749568  0.66661820     0.00400
N455        N  0.55906090  0.72800522  0.53039467    -0.47500
H456        H  0.65969698  0.75435930  0.71271303     0.06200
N457        N  0.55915088  0.69881950  0.66731356     0.00700
N458        N  0.52268398  0.55444845  0.56135248     0.00500
C459        C  0.50021395  0.50537222  0.50435849     0.42100
N460        N  0.70034680  0.54858504  0.66639212    -0.26200
C461        C  0.68538172  0.72908585  0.53306159    -0.07100
N462        N  0.73437487  0.66220543  0.70110457    -0.47300
N463        N  0.48905895  0.54690743  0.52795177    -0.47500
C464        C  0.73129796  0.71341706  0.51210443     0.41800
N465        N  0.56456511  0.69460028  0.56310959     0.00700
N466        N  0.69736328  0.55078987  0.56244842    -0.26200
N467        N  0.66819703  0.69071090  0.66900990    -0.26700
N468        N  0.66260306  0.51855250  0.56271925     0.00300
H469        H  0.76185769  0.55718806  0.52061136     0.06200
H470        H  0.56380898  0.45472831  0.51992297     0.06300
N471        N  0.52974232  0.66248095  0.56256842    -0.26700
N472        N  0.55733767  0.52324074  0.66685755    -0.26300
N473        N  0.70517639  0.66031675  0.56323290     0.00700
C474        C  0.50616975  0.72568181  0.71868616     0.42100
C475        C  0.73428885  0.53551796  0.69828385    -0.07600
N476        N  0.55536037  0.52000613  0.56191908    -0.26300
H477        H  0.56745840  0.46033378  0.71014837     0.06300
N478        N  0.54849379  0.73557241  0.69664421    -0.47600
H479        H  0.76835330  0.55330464  0.70340945     0.06200
C480        C  0.70841814  0.49586874  0.50613314     0.41900
C481        C  0.67832869  0.72105337  0.70494766    -0.07100
Co482      Co  0.70168030  0.60401965  0.61478864     0.73800
N483        N  0.67387434  0.48198932  0.69944202    -0.47300
C484        C  0.51914671  0.71627218  0.50614000     0.42200
N485        N  0.74112933  0.67040668  0.53314257    -0.47300
Co486      Co  0.61014148  0.51890828  0.61496946     0.73900
C487        C  0.54438506  0.48768599  0.52716568    -0.07600
C488        C  0.49082608  0.67912778  0.69851566    -0.07100
N489        N  0.67234346  0.69464352  0.56436406    -0.26700
N490        N  0.49151063  0.55181034  0.70007330    -0.47400
H491        H  0.46567340  0.65518982  0.52005316     0.06200
C492        C  0.72830398  0.53924622  0.52775091    -0.07600
Cl493      Cl  0.61316953  0.60707298  0.61508269    -0.50600
C494        C  0.71656838  0.49164604  0.72104176     0.42000
H495        H  0.66679268  0.76281660  0.52803049     0.06200
N496        N  0.66822979  0.48459705  0.52988107    -0.47300
C497        C  0.59457553  0.16233534  0.59145911     0.85800
C498        C  0.56549370  0.11983097  0.61067276    -0.54400
C499        C  0.59170030  0.08807940  0.63657109     0.08800
C500        C  0.64497563  0.09925540  0.63861869     0.19700
C501        C  0.62089477  0.18313584  0.63504077    -0.55100
C502        C  0.64742105  0.15009552  0.65909477     0.08900
C503        C  0.63308499  0.13684563  0.56119757    -0.54600
C504        C  0.65949684  0.10383025  0.58601522     0.09400
H505        H  0.52721278  0.11496520  0.60624280     0.14000
H506        H  0.66599910  0.07267184  0.65936476    -0.00300
H507        H  0.62113538  0.22117535  0.64418305     0.14300
H508        H  0.63608311  0.14091898  0.52267085     0.14100
C509        C  0.07602100  0.07729621  0.14056208     0.85800
C510        C  0.04893878  0.11152721  0.10778023    -0.54400
C511        C  0.07763520  0.14137667  0.08258156     0.08800
C512        C  0.13129073  0.13400062  0.09130564     0.19700
C513        C  0.11119290  0.05078415  0.10754326    -0.55100
C514        C  0.13931101  0.08045409  0.08128068     0.08900
C515        C  0.10900174  0.10887908  0.17147144    -0.54600
C516        C  0.13769933  0.13888623  0.14582771     0.09400
H517        H  0.01005358  0.11291955  0.10555256     0.14000
H518        H  0.15432301  0.15808978  0.06990798    -0.00300
H519        H  0.11561757  0.01227228  0.10475917     0.14300
H520        H  0.11018556  0.10693229  0.21030949     0.14100
C521        C  0.17498638  0.16860638  0.16909185    -0.06800
C522        C  0.20343004  0.14721547  0.20450242    -0.17900
C523        C  0.23648589  0.17399230  0.23081512     0.10400
C524        C  0.24354821  0.22295416  0.21964361    -0.06700
C525        C  0.21692679  0.24375396  0.18261848    -0.17900
C526        C  0.18215654  0.21743059  0.15788420     0.10500
S527        S  0.26425074  0.14444430  0.28097456    -0.32900
S528        S  0.14492126  0.24952299  0.11639439    -0.32900
H529        H  0.10253652  0.23150137  0.13649048     0.28500
H530        H  0.25423994  0.18205270  0.31353089     0.28500
H531        H  0.19845816  0.10964490  0.21316398     0.19100
H532        H  0.22157402  0.28151597  0.17456884     0.19100
C533        C  0.56496246  0.19997478  0.56554748    -0.06800
C534        C  0.51543277  0.20393011  0.57557781    -0.17900
C535        C  0.48497746  0.23098432  0.54698220     0.10400
C536        C  0.50445126  0.25665553  0.50868859    -0.06700
C537        C  0.55425707  0.25838497  0.50259778    -0.17900
C538        C  0.58488494  0.23162126  0.53133586     0.10500
S539        S  0.42190833  0.23133890  0.56141754    -0.32900
S540        S  0.64827008  0.24038431  0.52137071    -0.32900
H541        H  0.66265727  0.23442311  0.56903567     0.28500
H542        H  0.41269983  0.27804778  0.54484028     0.28500
H543        H  0.49966953  0.18618815  0.60596467     0.19100
H544        H  0.56966009  0.27987650  0.47435886     0.19100
C545        C  0.18105176  0.53938539  0.57135851    -0.06800
C546        C  0.17533820  0.54762442  0.52226133    -0.17900
C547        C  0.20175021  0.52178812  0.48871035     0.10400
C548        C  0.23489189  0.48725677  0.50471522    -0.06700
C549        C  0.23968244  0.47765567  0.55358980    -0.17900
C550        C  0.21265343  0.50318325  0.58727792     0.10500
S551        S  0.19295127  0.53608047  0.42634677    -0.32900
S552        S  0.21952111  0.48757818  0.64951193    -0.32900
H553        H  0.17301219  0.50141984  0.66341623     0.28500
H554        H  0.19713591  0.48879302  0.40891176     0.28500
H555        H  0.15127454  0.57551417  0.50987316     0.19100
H556        H  0.26458265  0.45023925  0.56547556     0.19100
C557        C  0.54381167  0.55330628  0.15202891    -0.06800
C558        C  0.54591930  0.50275313  0.14644120    -0.17900
C559        C  0.51467686  0.47267913  0.17119220     0.10400
C560        C  0.48137152  0.49302758  0.20319468    -0.06700
C561        C  0.47712612  0.54291629  0.20682546    -0.17900
C562        C  0.50755024  0.57324904  0.18206184     0.10500
S563        S  0.51952478  0.40872540  0.16060463    -0.32900
S564        S  0.49983687  0.63724590  0.19203837    -0.32900
H565        H  0.45936162  0.63589399  0.22195975     0.28500
H566        H  0.47143248  0.39817171  0.17121239     0.28500
H567        H  0.57237760  0.48549734  0.12446834     0.19100
H568        H  0.45166237  0.55851682  0.23154647     0.19100
C569        C  0.78216222  0.21254484  0.26530757    -0.06800
C570        C  0.76169303  0.23270641  0.30646860    -0.17900
C571        C  0.78577822  0.26793859  0.33253794     0.10400
C572        C  0.83164782  0.28234655  0.31674303    -0.06700
C573        C  0.85430925  0.25694647  0.27921754    -0.17900
C574        C  0.82976847  0.22216610  0.25312776     0.10500
S575        S  0.75456699  0.29694836  0.38166279    -0.32900
S576        S  0.85973880  0.19319710  0.20341788    -0.32900
H577        H  0.83158790  0.15130859  0.20350288     0.28500
H578        H  0.71078585  0.27236632  0.37727861     0.28500
H579        H  0.72510050  0.22372992  0.31564100     0.19100
H580        H  0.89025123  0.26635102  0.26814344     0.19100
C581        C  0.91512427  0.44164959  0.29092709    -0.06800
C582        C  0.94524915  0.47563474  0.31285015    -0.17900
C583        C  0.97342165  0.50565539  0.28577339     0.10400
C584        C  0.97349568  0.49958673  0.23560865    -0.06700
C585        C  0.93763815  0.47221397  0.21353836    -0.17900
C586        C  0.90596866  0.44541250  0.24116281     0.10500
S587        S  0.00520925  0.55254973  0.31750577    -0.32900
S588        S  0.85080622  0.42474831  0.21384724    -0.32900
H589        H  0.86179177  0.43771050  0.16652638     0.28500
H590        H  0.99804452  0.58723987  0.28175506     0.28500
H591        H  0.94738009  0.47826892  0.35157420     0.19100
H592        H  0.93413648  0.47250888  0.17489526     0.19100
C593        C  0.94078270  0.32106353  0.41992010    -0.06800
C594        C  0.93789413  0.32553458  0.46968133    -0.17900
C595        C  0.96284957  0.29405389  0.49917146     0.10400
C596        C  0.98994464  0.25656621  0.47804464    -0.06700
C597        C  0.99308924  0.25218483  0.42829867    -0.17900
C598        C  0.96896469  0.28442862  0.39875630     0.10500
S599        S  0.96034883  0.30532824  0.56296449    -0.32900
S600        S  0.97407557  0.27816579  0.33445038    -0.32900
H601        H  0.00221198  0.23613178  0.33412495     0.28500
H602        H  0.96666850  0.25771688  0.57781054     0.28500
H603        H  0.91638747  0.35393662  0.48557529     0.19100
H604        H  0.01504314  0.22391139  0.41279963     0.19100
C605        C  0.79551948  0.40958733  0.41676001    -0.06800
C606        C  0.80512266  0.41133511  0.46588131    -0.17900
C607        C  0.77504355  0.43683142  0.49671420     0.10400
C608        C  0.73511178  0.46120337  0.47764110    -0.06700
C609        C  0.72303062  0.45583153  0.42937415    -0.17900
C610        C  0.75282933  0.42997802  0.39852706     0.10500
S611        S  0.79077234  0.43923494  0.55938785    -0.32900
S612        S  0.73572434  0.42674472  0.33614212    -0.32900
H613        H  0.76350751  0.38631400  0.32398157     0.28500
H614        H  0.74331258  0.44078084  0.57623246     0.28500
H615        H  0.83767485  0.39540494  0.47980316     0.19100
H616        H  0.69160392  0.47381587  0.41524190     0.19100
C617        C  0.31301420  0.81646442  0.30273894    -0.06800
C618        C  0.28807838  0.77780029  0.32260241    -0.17900
C619        C  0.25938289  0.74848795  0.29451526     0.10400
C620        C  0.25323923  0.75946836  0.24572997    -0.06700
C621        C  0.27648868  0.79917920  0.22595720    -0.17900
C622        C  0.30661303  0.82797042  0.25405929     0.10500
S623        S  0.23610671  0.69504952  0.32219447    -0.32900
S624        S  0.33882417  0.87657808  0.22646742    -0.32900
H625        H  0.31581323  0.87427958  0.18166251     0.28500
H626        H  0.25039075  0.66429332  0.28448212     0.28500
H627        H  0.29284366  0.76876509  0.35997906     0.19100
H628        H  0.27181469  0.80680296  0.18826044     0.19100
C629        C  0.47347778  0.98574562  0.23522054    -0.06800
C630        C  0.44444637  0.01228580  0.26683681    -0.17900
C631        C  0.41795834  0.98954467  0.30214213     0.10400
C632        C  0.41830784  0.93908970  0.30375767    -0.06700
C633        C  0.44415088  0.91239353  0.26988127    -0.17900
C634        C  0.47271495  0.93491033  0.23634781     0.10500
S635        S  0.38866955  0.02720218  0.34601663    -0.32900
S636        S  0.51122228  0.89615202  0.20144312    -0.32900
H637        H  0.55339220  0.91889674  0.21740954     0.28500
H638        H  0.39251497  0.99513160  0.38444755     0.28500
H639        H  0.44524579  0.05124896  0.26634643     0.19100
H640        H  0.44459394  0.87346051  0.27180868     0.19100
C641        C  0.22685977  0.98826712  0.46095436    -0.06800
C642        C  0.22599797  0.93886034  0.47059941    -0.17900
C643        C  0.25633242  0.90744270  0.44645898     0.10400
C644        C  0.28782283  0.92602012  0.41188308    -0.06700
C645        C  0.28223129  0.97343128  0.39642366    -0.17900
C646        C  0.25254390  0.00524864  0.42119735     0.10500
S647        S  0.25432273  0.84483119  0.46275020    -0.32900
S648        S  0.25075748  0.06687336  0.40171534    -0.32900
H649        H  0.20483689  0.07686019  0.42003381     0.28500
H650        H  0.27192353  0.82742883  0.41883817     0.28500
H651        H  0.20443268  0.92496799  0.49962172     0.19100
H652        H  0.30322346  0.98661134  0.36698729     0.19100
C653        C  0.49126986  0.75219260  0.48149663    -0.06800
C654        C  0.50033144  0.75937491  0.43323137    -0.17900
C655        C  0.47297538  0.79186371  0.40714803     0.10400
C656        C  0.43603275  0.81866504  0.43069531    -0.06700
C657        C  0.42964254  0.81295479  0.48038210    -0.17900
C658        C  0.45678883  0.77979262  0.50591343     0.10500
S659        S  0.48474052  0.79623804  0.34340824    -0.32900
S660        S  0.44695299  0.77249554  0.56955475    -0.32900
H661        H  0.41614528  0.81212587  0.57595342     0.28500
H662        H  0.51605092  0.75671012  0.33925534     0.28500
H663        H  0.52821751  0.73846279  0.41582744     0.18300
H664        H  0.40281505  0.83280583  0.49977094     0.19100
C665        C  0.25854996  0.25044125  0.75355196    -0.06800
C666        C  0.27590838  0.29437923  0.73733528    -0.17900
C667        C  0.30973279  0.32018518  0.76378806     0.10400
C668        C  0.32594375  0.30153739  0.80803151    -0.06700
C669        C  0.30826478  0.25694139  0.82366964    -0.17900
C670        C  0.27475547  0.23134573  0.79694283     0.10500
S671        S  0.33300634  0.37481002  0.73842622    -0.32900
S672        S  0.25267119  0.17552068  0.82074034    -0.32900
H673        H  0.20617034  0.17975652  0.80168277     0.28500
H674        H  0.30250604  0.37713427  0.69836223     0.28500
H675        H  0.26381071  0.30767426  0.70300507     0.19100
H676        H  0.31897516  0.24258187  0.85796212     0.19100
C677        C  0.28857635  0.40956891  0.92299750    -0.06800
C678        C  0.28711327  0.45745917  0.90810580    -0.17900
C679        C  0.26127101  0.49157386  0.93382256     0.10400
C680        C  0.23521484  0.47692223  0.97431863    -0.06700
C681        C  0.23275402  0.42843927  0.98654248    -0.17900
C682        C  0.25844197  0.39422487  0.96047174     0.10500
S683        S  0.26547762  0.55323542  0.91454224    -0.32900
S684        S  0.25110631  0.33193216  0.97628118    -0.32900
H685        H  0.26514428  0.31331659  0.93139436     0.28500
H686        H  0.26302244  0.57442925  0.96031891     0.28500
H687        H  0.30941564  0.46943757  0.87884500     0.19100
H688        H  0.21086399  0.41729514  0.01652195     0.19100
C689        C  0.43377252  0.31145481  0.95093225    -0.06800
C690        C  0.47716802  0.33097073  0.96788247    -0.17900
C691        C  0.50700007  0.30495115  0.99766159     0.10400
C692        C  0.49245973  0.25909322  0.01234645    -0.06700
C693        C  0.44765684  0.24114823  0.99980664    -0.17900
C694        C  0.41729315  0.26737683  0.97031678     0.10500
S695        S  0.56392326  0.33152505  0.01354042    -0.32900
S696        S  0.35787181  0.24385213  0.95860191    -0.32900
H697        H  0.36048926  0.20380931  0.98891282     0.28500
H698        H  0.59084285  0.28930769  0.00610173     0.28500
H699        H  0.48884547  0.36650300  0.95840475     0.19100
H700        H  0.43681500  0.20629902  0.01291635     0.19100
C701        C  0.41832433  0.43560825  0.82268905    -0.06800
C702        C  0.43384670  0.41306860  0.78051992    -0.17900
C703        C  0.45901634  0.43832800  0.74602382     0.10400
C704        C  0.47232389  0.48615062  0.75589842    -0.06700
C705        C  0.45608479  0.50929752  0.79758813    -0.17900
C706        C  0.42902462  0.48445683  0.83136857     0.10500
S707        S  0.47209007  0.40963379  0.68910305    -0.32900
S708        S  0.41108720  0.51698753  0.88474734    -0.32900
H709        H  0.39081630  0.47899169  0.91031187     0.28500
H710        H  0.44296842  0.36899644  0.69564035     0.28500
H711        H  0.42717371  0.37507320  0.77517049     0.19100
H712        H  0.46582993  0.54641057  0.80451613     0.19100
C713        C  0.23173010  0.74746404  0.74077265    -0.06800
C714        C  0.24606232  0.73725263  0.69390734    -0.17900
C715        C  0.22368623  0.70143870  0.66727774     0.10400
C716        C  0.18461813  0.67614932  0.68771185    -0.06700
C717        C  0.17197234  0.68571586  0.73579318    -0.17900
C718        C  0.19492035  0.72120437  0.76227357     0.10500
S719        S  0.24549307  0.68981257  0.60707167    -0.32900
S720        S  0.17528712  0.73134106  0.82324895    -0.32900
H721        H  0.18830993  0.78007040  0.82599482     0.28500
H722        H  0.28974750  0.71350352  0.61190834     0.28500
H723        H  0.27587272  0.75657112  0.67851882     0.19100
H724        H  0.14395331  0.66678032  0.75384408     0.19100
C725        C  0.23063958  0.00615744  0.98569532    -0.06800
C726        C  0.24953267  0.04464010  0.01219541    -0.17900
C727        C  0.22010028  0.07215595  0.04209784     0.10400
C728        C  0.17105736  0.06056267  0.04449551    -0.06700
C729        C  0.15197798  0.02432382  0.01480262    -0.17900
C730        C  0.18140040  0.99667054  0.98569112     0.10500
S731        S  0.24637909  0.11851263  0.07940033    -0.32900
S732        S  0.15448685  0.94856186  0.95136615    -0.32900
H733        H  0.18740393  0.94971541  0.91330013     0.28500
H734        H  0.29384356  0.11315537  0.06326077     0.28500
H735        H  0.28772519  0.05147943  0.01103487     0.19100
H736        H  0.11399889  0.01621703  0.01582643     0.19100
C737        C  0.53229295  0.75558126  0.98614236    -0.06800
C738        C  0.53584590  0.76958673  0.03451552    -0.17900
C739        C  0.55952532  0.74095744  0.06742908     0.10400
C740        C  0.57923304  0.69707714  0.05202184    -0.06700
C741        C  0.58078074  0.68557011  0.00323755    -0.17900
C742        C  0.55878514  0.71521091  0.96975747     0.10500
S743        S  0.56173572  0.76122890  0.12865084    -0.32900
S744        S  0.56708990  0.69960951  0.90757586    -0.32900
H745        H  0.56548601  0.74745355  0.89171324     0.28500
H746        H  0.60850499  0.74381195  0.13604239     0.28500
H747        H  0.51796937  0.80171675  0.04760808     0.19100
H748        H  0.59791500  0.65255440  0.99137727     0.19100
C749        C  0.56837599  0.05633234  0.67054879    -0.06800
C750        C  0.53330204  0.07734892  0.69972397    -0.17900
C751        C  0.50840573  0.05052246  0.73256096     0.10400
C752        C  0.52105784  0.00175520  0.73883083    -0.06700
C753        C  0.55739593  0.98087564  0.71090096    -0.17900
C754        C  0.58099775  0.00770102  0.67623903     0.10500
S755        S  0.45846007  0.08045178  0.76120409    -0.32900
S756        S  0.62471828  0.97762269  0.63915945    -0.32900
H757        H  0.61183791  0.00223074  0.59732677     0.28500
H758        H  0.42582104  0.04332751  0.75072351     0.28500
H759        H  0.52425443  0.11507792  0.69603192     0.19100
H760        H  0.56625950  0.94317186  0.71508326     0.19100
C761        C  0.68488223  0.16430631  0.69259724    -0.06800
C762        C  0.72765842  0.18093518  0.67305148    -0.17900
C763        C  0.76467075  0.19653845  0.70243920     0.10400
C764        C  0.75610890  0.20167526  0.75218376    -0.06700
C765        C  0.71476520  0.18101709  0.77197679    -0.17900
C766        C  0.67941776  0.16143339  0.74248489     0.10500
S767        S  0.82117518  0.20914361  0.67386141    -0.32900
S768        S  0.62685067  0.13665234  0.76992225    -0.32900
H769        H  0.62832329  0.09467340  0.74169491     0.28500
H770        H  0.84894936  0.19367895  0.71298277     0.28500
H771        H  0.73248062  0.18095539  0.63449224     0.19100
H772        H  0.70870158  0.18213312  0.81026037     0.19100
C773        C  0.01337795  0.25433564  0.00266864    -0.06800
C774        C  0.04761562  0.22450424  0.98049676    -0.17900
C775        C  0.06961629  0.18741374  0.00565107     0.10400
C776        C  0.05748079  0.18035761  0.05398833    -0.06700
C777        C  0.02509222  0.21146602  0.07671518    -0.17900
C778        C  0.00395266  0.24908242  0.05212046     0.10500
S779        S  0.10931353  0.14789798  0.97313129    -0.32900
S780        S  0.96717153  0.28977012  0.08684190    -0.32900
H781        H  0.98624210  0.33124098  0.06558219     0.28500
H782        H  0.08923605  0.10595648  0.99229842     0.28500
H783        H  0.05550338  0.22823161  0.94275501     0.19100
H784        H  0.01700810  0.20698657  0.11440634     0.19100
C785        C  0.73032888  0.52800103  0.96659164    -0.06800
C786        C  0.75243818  0.56492220  0.99273531    -0.17900
C787        C  0.72604147  0.59396777  0.02418877     0.10400
C788        C  0.67691667  0.58382081  0.03096908    -0.06700
C789        C  0.65370948  0.55426049  0.99715612    -0.17900
C790        C  0.67973207  0.52593480  0.96495584     0.10500
S791        S  0.75605329  0.64317380  0.05352202    -0.32900
S792        S  0.64742864  0.48474881  0.92619466    -0.32900
H793        H  0.60076394  0.49937216  0.93871720     0.28500
H794        H  0.80299966  0.63193798  0.03885810     0.28500
H795        H  0.79087331  0.56943204  0.99013517     0.19100
H796        H  0.61513986  0.55034086  0.99881735     0.19100
C797        C  0.97743956  0.50955385  0.71185739    -0.06800
C798        C  0.97242918  0.55947072  0.71242949    -0.17900
C799        C  0.00468702  0.58805990  0.68765899     0.10400
C800        C  0.04258190  0.56568498  0.66230521    -0.06700
C801        C  0.04486130  0.51565582  0.65831018    -0.17900
C802        C  0.01258800  0.48719724  0.68302290     0.10500
S803        S  0.99731316  0.65245810  0.69260435    -0.32900
S804        S  0.02111895  0.42297202  0.68044546    -0.32900
H805        H  0.97212179  0.41222387  0.67655907     0.28500
H806        H  0.02441687  0.66459762  0.65220636     0.28500
H807        H  0.94492156  0.57627925  0.73434353     0.19100
H808        H  0.07408845  0.49866516  0.63890405     0.19100
C809        C  0.67768957  0.66819150  0.18308069    -0.06800
C810        C  0.72647800  0.66800659  0.17183914    -0.17900
C811        C  0.75850428  0.69854324  0.19511964     0.10400
C812        C  0.74180711  0.72725484  0.23335365    -0.06700
C813        C  0.69361840  0.72482724  0.24712557    -0.17900
C814        C  0.66134802  0.69587850  0.22251058     0.10500
S815        S  0.81916075  0.70042845  0.17298047    -0.32900
S816        S  0.60076264  0.69605379  0.24451787    -0.32900
H817        H  0.58024126  0.69378448  0.19902465     0.28500
H818        H  0.82627329  0.74946527  0.18333192     0.28500
H819        H  0.73969359  0.64355952  0.14501078     0.19100
H820        H  0.68082997  0.74549882  0.27764425     0.19100
C821        C  0.98159545  0.99140587  0.22622544    -0.06800
C822        C  0.98199694  0.04128433  0.23190867    -0.17900
C823        C  0.01104394  0.06969972  0.20357836     0.10400
C824        C  0.04158432  0.04730064  0.16937931    -0.06700
C825        C  0.03744275  0.99725408  0.16127754    -0.17900
C826        C  0.00818803  0.96906335  0.18985961     0.10500
S827        S  0.00841479  0.13433700  0.21245205    -0.32900
S828        S  0.00403430  0.90491069  0.17911556    -0.32900
H829        H  0.03821804  0.90199062  0.14220070     0.28500
H830        H  0.96695801  0.13562772  0.24108369     0.28500
H831        H  0.96094855  0.05799838  0.26005020     0.19100
H832        H  0.05581725  0.97938994  0.13245630     0.19100
C833        C  0.01399385  0.72726562  0.50313764    -0.06800
C834        C  0.06344621  0.73230093  0.49550180    -0.17900
C835        C  0.09596645  0.70100698  0.51657597     0.10400
C836        C  0.07871108  0.66434039  0.54635459    -0.06700
C837        C  0.02936325  0.65645288  0.55031892    -0.17900
C838        C  0.99677672  0.68831239  0.53016694     0.10500
S839        S  0.15889739  0.71004209  0.50486358    -0.32900
S840        S  0.93424729  0.67948423  0.54387260    -0.32900
H841        H  0.92361985  0.72870672  0.54919572     0.28500
H842        H  0.17311992  0.66272572  0.51516463     0.28500
H843        H  0.07707227  0.76051368  0.47281159     0.19100
H844        H  0.01599750  0.62814252  0.57306093     0.19100
C845        C  0.73422622  0.98940956  0.51633876    -0.06800
C846        C  0.75500866  0.01165879  0.55625913    -0.17900
C847        C  0.73223518  0.05004272  0.57928914     0.10400
C848        C  0.68760339  0.06618110  0.56173667    -0.06700
C849        C  0.66663500  0.04318611  0.52204281    -0.17900
C850        C  0.68965971  0.00544375  0.49876672     0.10500
S851        S  0.76197206  0.07901705  0.62907350    -0.32900
S852        S  0.66118874  0.98127211  0.44579119    -0.32900
H853        H  0.70289418  0.98225590  0.41755467     0.28500
H854        H  0.80516724  0.05293677  0.62676751     0.28500
H855        H  0.78986137  0.99960414  0.56844794     0.19100
H856        H  0.63185094  0.05459948  0.50902762     0.19100
C857        C  0.82108643  0.92831851  0.92274883    -0.06800
C858        C  0.77538030  0.94428025  0.90836226    -0.17900
C859        C  0.74729451  0.97311566  0.93788988     0.10400
C860        C  0.76577172  0.98829172  0.98230409    -0.06700
C861        C  0.81190928  0.97552515  0.99598496    -0.17900
C862        C  0.84056438  0.94674658  0.96644105     0.10500
S863        S  0.68751381  0.98744564  0.91768593    -0.32900
S864        S  0.90062161  0.93546539  0.98732036    -0.32900
H865        H  0.90376830  0.97438381  0.01970158     0.28500
H866        H  0.66587985  0.98228232  0.96283866     0.28500
H867        H  0.76065532  0.93361979  0.87398226     0.19100
H868        H  0.82548359  0.98838067  0.03014758     0.19100
C869        C  0.93146621  0.93747259  0.80663961    -0.06800
C870        C  0.97988035  0.93776067  0.82013643    -0.17900
C871        C  0.01153315  0.97115097  0.80125579     0.10400
C872        C  0.99441509  0.00436251  0.76738670    -0.06700
C873        C  0.94512630  0.00652480  0.75713404    -0.17900
C874        C  0.91340572  0.97364457  0.77671310     0.10500
S875        S  0.07274095  0.96955835  0.82212225    -0.32900
S876        S  0.85069703  0.97982861  0.76218176    -0.32900
H877        H  0.83351155  0.96269908  0.80616600     0.28500
H878        H  0.08138150  0.01879328  0.81517030     0.28500
H879        H  0.99329763  0.91147002  0.84523723     0.19100
H880        H  0.93125592  0.03267082  0.73207729     0.19100
C881        C  0.81980200  0.79156608  0.80241133    -0.06800
C882        C  0.82314942  0.78664873  0.75227552    -0.17900
C883        C  0.79229256  0.75678126  0.72673461     0.10400
C884        C  0.75714034  0.73081118  0.75158720    -0.06700
C885        C  0.75633880  0.73151821  0.80150341    -0.17900
C886        C  0.78848553  0.76018325  0.82743283     0.10500
S887        S  0.80073626  0.75251495  0.66265353    -0.32900
S888        S  0.78966407  0.75493003  0.89209331    -0.32900
H889        H  0.75165772  0.72213068  0.89640286     0.28500
H890        H  0.75199919  0.75115717  0.65038840     0.28500
H891        H  0.85002986  0.80532421  0.73202921     0.19100
H892        H  0.73073393  0.70914509  0.82002404     0.19100
C893        C  0.95078969  0.82487434  0.91921542    -0.06800
C894        C  0.93849123  0.82770717  0.96757701    -0.17900
C895        C  0.97101448  0.81496368  0.00279365     0.10400
C896        C  0.01371322  0.79173712  0.98898140    -0.06700
C897        C  0.02765504  0.79230695  0.94050524    -0.17900
C898        C  0.99664577  0.80895266  0.90526195     0.10500
S899        S  0.95672356  0.83116807  0.06377515    -0.32900
S900        S  0.01702966  0.80517060  0.84382038    -0.32900
H901        H  0.97810111  0.82728906  0.82115362     0.28500
H902        H  0.00471580  0.83163475  0.07937235     0.28500
H903        H  0.90295230  0.83939239  0.97797264     0.19100
H904        H  0.06140710  0.77645585  0.92934314     0.19100
loop_ 
_geom_bond_atom_site_label_1 
_geom_bond_atom_site_label_2 
_geom_bond_distance 
_geom_bond_site_symmetry_2 
_ccdc_geom_bond_type 
C1            C2   1.526       .  S
C1            C7   1.551       .  S
C1            C5   1.538       .  S
C1          C881   1.524       .  S
C2            H9   1.087       .  S
C2            C3   1.356       .  D
C3            C4   1.525       .  S
C3          C893   1.448       .  S
C4            C8   1.515       .  S
C4            C6   1.529       .  S
C4           H10   1.103       .  S
C5           H11   1.085       .  S
C5            C6   1.373       .  D
C6          C857   1.491       .  S
C7           H12   1.082       .  S
C7            C8   1.363       .  D
C8          C869   1.462       .  S
C13          N31   1.364       .  A
C13          C50   1.479       .  S
C13         C248   1.532   1_665  S
N14          N31   1.339       .  A
N14          N36   1.322       .  A
N14         Co51   2.144       .  S
C15          N40   1.356       .  A
C15          C53   1.473       .  S
C15          H60   1.081       .  S
H16          C57   1.082       .  S
C17          N41   1.361       .  A
C17          C21   1.482       .  S
C17          H46   1.082       .  S
Co18         N36   2.143       .  S
Co18         N26   2.059       .  S
Co18         N58   2.048       .  S
Co18         N34   2.142       .  S
Co18        Cl62   2.464       .  S
N19          C57   1.336       .  A
N19          N26   1.322       .  A
N19         Co20   2.076       .  S
Co20         N23   2.126       .  S
Co20         N40   2.122       .  S
Co20         N27   2.066       .  S
Co20        Cl62   2.457       .  S
C21          N59   1.359       .  A
C21         C464   1.526       .  S
N22          N29   1.323       .  A
N22          N52   1.317       .  A
N22         Co55   2.075       .  S
N23          N41   1.322       .  A
N23          N59   1.335       .  A
N24          C53   1.363       .  A
N24          N34   1.338       .  A
H25          C50   1.082   1_545  S
N26          N47   1.315       .  A
N27          N45   1.319       .  A
N27          N32   1.317       .  A
C28          N32   1.346       .  A
C28          C56   1.458       .  S
C28         C812   1.458       .  S
N29          C44   1.334       .  A
N29         Co51   2.070       .  S
C30          N58   1.329       .  A
C30          C33   1.449       .  S
C30          H64   1.082   1_565  S
C33          N54   1.346       .  A
C33         C821   1.445       .  S
N34          N40   1.319       .  A
N35          C61   1.354       .  A
N35          N37   1.322       .  A
N35         Co51   2.131       .  S
N36          C50   1.359       .  A
N37          N65   1.338       .  A
N37         Co55   2.135       .  S
H38          C61   1.082   1_455  S
H39          C56   1.081       .  S
N41         Co55   2.148       .  S
N42          N54   1.318       .  A
N42          N58   1.320       .  A
N42         Co51   2.069       .  S
C43          N47   1.343       .  A
C43          C57   1.457       .  S
C43         C845   1.449       .  S
C44          C63   1.459       .  S
C44          H48   1.082   1_655  S
N45          C56   1.336       .  A
N45         Co55   2.066       .  S
C49          N65   1.362       .  A
C49          C61   1.473       .  S
C49         C291   1.519   1_655  S
Co51        Cl62   2.464       .  S
N52          C63   1.345       .  A
C53         C314   1.521       .  S
Co55        Cl62   2.465       .  S
C63         C833   1.461   1_655  S
C66          N84   1.343       .  A
C66         C103   1.465       .  S
C66         C785   1.470       .  S
N67          N84   1.318       .  A
N67          N89   1.322       .  A
N67        Co104   2.066       .  S
C68          N93   1.337       .  A
C68         C106   1.459       .  S
C68         H113   1.081   1_655  S
H69         C110   1.082   1_455  S
C70          N94   1.334       .  A
C70          C74   1.447       .  S
C70          H99   1.082       .  S
Co71         N89   2.088       .  S
Co71         N79   2.149       .  S
Co71        N111   2.167       .  S
Co71         N87   2.083       .  S
Co71       Cl115   2.462       .  S
N72         C110   1.358       .  A
N72          N79   1.324       .  A
N72         Co73   2.140       .  S
Co73         N76   2.086       .  S
Co73         N93   2.083       .  S
Co73         N80   2.157       .  S
Co73       Cl115   2.478       .  S
C74         N112   1.349       .  A
C74         C797   1.447       .  S
N75          N82   1.318       .  A
N75         N105   1.334       .  A
N75        Co108   2.111       .  S
N76          N94   1.322       .  A
N76         N112   1.320       .  A
N77         C106   1.346       .  A
N77          N87   1.317       .  A
H78         C103   1.082       .  S
N79         N100   1.339       .  A
N80          N98   1.321       .  A
N80          N85   1.342       .  A
C81          N85   1.368       .  A
C81         C109   1.465       .  S
C81         C208   1.522   1_655  S
N82          C97   1.355       .  A
N82        Co104   2.125       .  S
C83         N111   1.363   1_554  A
C83          C86   1.487   1_554  S
C83         H117   1.082       .  S
C86         N107   1.360       .  A
C86         C322   1.536   1_556  S
N87          N93   1.327       .  A
N88         C114   1.335       .  A
N88          N90   1.317       .  A
N88        Co104   2.065       .  S
N89         C103   1.338       .  A
N90         N118   1.316       .  A
N90        Co108   2.068       .  S
H91         C114   1.081       .  S
H92         C109   1.081       .  S
N94        Co108   2.059       .  S
N95         N107   1.338       .  A
N95         N111   1.322       .  A
N95        Co104   2.124       .  S
C96         N100   1.364       .  A
C96         C110   1.477       .  S
C96         C281   1.531   1_655  S
C97         C116   1.473       .  S
C97         H101   1.081       .  S
N98         C109   1.350       .  A
N98        Co108   2.106       .  S
C102        N118   1.346       .  A
C102        C114   1.466       .  S
C102        C764   1.470       .  S
Co104      Cl115   2.474       .  S
N105        C116   1.356       .  A
C106        C773   1.468   1_656  S
Co108      Cl115   2.449       .  S
C116        C494   1.509       .  S
C119        N137   1.362       .  A
C119        C156   1.477       .  S
C119        C354   1.528   1_566  S
N120        N137   1.340       .  A
N120        N142   1.320       .  A
N120       Co157   2.131       .  S
C121        N146   1.353       .  A
C121        C159   1.468       .  S
C121        H166   1.082       .  S
H122        C163   1.078       .  S
C123        N147   1.356       .  A
C123        C127   1.475       .  S
C123        H152   1.082       .  S
Co124       N142   2.138       .  S
Co124       N132   2.077       .  S
Co124       N164   2.088       .  S
Co124       N140   2.152       .  S
Co124      Cl168   2.468       .  S
N125        C163   1.334       .  A
N125        N132   1.321       .  A
N125       Co126   2.070       .  S
Co126       N129   2.127       .  S
Co126       N146   2.118       .  S
Co126       N133   2.056       .  S
Co126      Cl168   2.458       .  S
C127        N165   1.360       .  A
C127        C474   1.519       .  S
N128        N135   1.320       .  A
N128        N158   1.319       .  A
N128       Co161   2.073       .  S
N129        N147   1.320       .  A
N129        N165   1.336       .  A
N130        C159   1.367       .  A
N130        N140   1.342       .  A
H131        C156   1.082   1_554  S
N132        N153   1.317       .  A
N133        N151   1.321       .  A
N133        N138   1.315       .  A
C134        N138   1.343       .  A
C134        C162   1.455       .  S
C134        C713   1.441       .  S
N135        C150   1.329       .  A
N135       Co157   2.054       .  S
C136        N164   1.336       .  A
C136        C139   1.456       .  S
C136        H170   1.082   1_556  S
C139        N160   1.339       .  A
C139        C725   1.440   1_565  S
N140        N146   1.320       .  A
N141        C167   1.360   1_565  A
N141        N143   1.320       .  A
N141       Co157   2.152       .  S
N142        C156   1.356       .  A
N143        N171   1.339       .  A
N143       Co161   2.129       .  S
H144        C167   1.082       .  S
H145        C162   1.082       .  S
N147       Co161   2.129       .  S
N148        N160   1.316       .  A
N148        N164   1.326       .  A
N148       Co157   2.059       .  S
C149        N153   1.351       .  A
C149        C163   1.463       .  S
C149        C737   1.471       .  S
C150        C169   1.451       .  S
C150        H154   1.082   1_565  S
N151        C162   1.331       .  A
N151       Co161   2.064       .  S
C155        N171   1.361       .  A
C155        C167   1.482   1_565  S
C155        C216   1.531   1_565  S
Co157      Cl168   2.459       .  S
N158        C169   1.348       .  A
C159        C311   1.526   1_556  S
Co161      Cl168   2.467       .  S
C169        C752   1.450   1_565  S
C172        C173   1.536       .  S
C172        C178   1.536       .  S
C172        C176   1.522       .  S
C172        C689   1.509       .  S
C173        H180   1.084       .  S
C173        C174   1.357       .  D
C174        C175   1.535       .  S
C174        C701   1.458       .  S
C175        C179   1.534       .  S
C175        C177   1.530       .  S
C175        H181   1.107       .  S
C176        H182   1.087       .  S
C176        C177   1.357       .  D
C177        C677   1.464       .  S
C178        H183   1.086       .  S
C178        C179   1.367       .  D
C179        C668   1.481       .  S
C184        C185   1.543       .  S
C184        C190   1.523       .  S
C184        C188   1.530       .  S
C184        C656   1.517       .  S
C185        H192   1.080       .  S
C185        C186   1.368       .  D
C186        C187   1.525       .  S
C186        C644   1.464       .  S
C187        C191   1.530       .  S
C187        C189   1.524       .  S
C187        H193   1.110       .  S
C188        H194   1.087       .  S
C188        C189   1.360       .  D
C189        C617   1.466       .  S
C190        H195   1.087       .  S
C190        C191   1.359       .  D
C191        C632   1.453       .  S
C196        C197   1.519       .  S
C196        C202   1.532       .  S
C196        C200   1.539       .  S
C196        C581   1.503       .  S
C197        H204   1.087       .  S
C197        C198   1.355       .  D
C198        C199   1.534       .  S
C198        C605   1.460       .  S
C199        C203   1.530       .  S
C199        C201   1.526       .  S
C199        H205   1.109       .  S
C200        H206   1.087       .  S
C200        C201   1.357       .  D
C201        C593   1.460       .  S
C202        H207   1.081       .  S
C202        C203   1.367       .  D
C203        C572   1.469       .  S
C208        N226   1.366       .  A
C208        C245   1.470   1_455  S
N209        N226   1.341       .  A
N209        N231   1.321       .  A
N209       Co246   2.149       .  S
C210        N235   1.356   1_565  A
C210        C248   1.475   1_565  S
C210        H255   1.081       .  S
H211        C252   1.081   1_565  S
C212        N236   1.354       .  A
C212        C216   1.470       .  S
C212        H241   1.082       .  S
Co213       N231   2.122       .  S
Co213       N221   2.080       .  S
Co213       N253   2.079       .  S
Co213       N229   2.141       .  S
Co213      Cl257   2.465       .  S
N214        C252   1.335       .  A
N214        N221   1.322       .  A
N214       Co215   2.070       .  S
Co215       N218   2.157       .  S
Co215       N235   2.141       .  S
Co215       N222   2.052       .  S
Co215      Cl257   2.470       .  S
C216        N254   1.369       .  A
N217        N224   1.323       .  A
N217        N247   1.319       .  A
N217       Co250   2.074       .  S
N218        N236   1.320       .  A
N218        N254   1.342       .  A
N219        C248   1.366   1_655  A
N219        N229   1.341   1_655  A
H220        C245   1.082       .  S
N221        N242   1.318       .  A
N222        N240   1.322       .  A
N222        N227   1.315       .  A
C223        N227   1.342       .  A
C223        C251   1.464       .  S
C223        C641   1.457   1_545  S
N224        C239   1.334       .  A
N224       Co246   2.067       .  S
C225        N253   1.338       .  A
C225        C228   1.456       .  S
C225        H259   1.082   1_455  S
C228        N249   1.342       .  A
C228        C596   1.449   1_455  S
N229        N235   1.321       .  A
N230        C256   1.356       .  A
N230        N232   1.322       .  A
N230       Co246   2.141       .  S
N231        C245   1.351   1_455  A
N232        N260   1.339       .  A
N232       Co250   2.131       .  S
H233        C256   1.081       .  S
H234        C251   1.081       .  S
N236       Co250   2.124       .  S
N237        N249   1.318       .  A
N237        N253   1.324       .  A
N237       Co246   2.071       .  S
C238        N242   1.348       .  A
C238        C252   1.461       .  S
C238        C872   1.463   1_455  S
C239        C258   1.452       .  S
C239        H243   1.082       .  S
N240        C251   1.339       .  A
N240       Co250   2.088       .  S
C244        N260   1.362       .  A
C244        C256   1.477       .  S
C244        C391   1.526       .  S
Co246      Cl257   2.465       .  S
N247        C258   1.345       .  A
Co250      Cl257   2.463       .  S
C258        C665   1.448       .  S
C261        N279   1.347       .  A
C261        C298   1.468       .  S
C261        C896   1.467   1_554  S
N262        N279   1.316       .  A
N262        N284   1.319       .  A
N262       Co299   2.061       .  S
C263        N288   1.328       .  A
C263        C301   1.454       .  S
C263        H308   1.081       .  S
H264        C305   1.082       .  S
C265        N289   1.335       .  A
C265        C269   1.454       .  S
C265        H294   1.081       .  S
Co266       N284   2.074       .  S
Co266       N274   2.133       .  S
Co266       N306   2.132       .  S
Co266       N282   2.057       .  S
Co266      Cl310   2.478       .  S
N267        C305   1.354       .  A
N267        N274   1.321       .  A
N267       Co268   2.129       .  S
Co268       N271   2.072       .  S
Co268       N288   2.065       .  S
Co268       N275   2.132       .  S
Co268      Cl310   2.445       .  S
C269        N307   1.345       .  A
C269        C620   1.453       .  S
N270        N277   1.321       .  A
N270        N300   1.341       .  A
N270       Co303   2.146       .  S
N271        N289   1.322       .  A
N271        N307   1.318       .  A
N272        C301   1.343   1_655  A
N272        N282   1.317   1_655  A
H273        C298   1.079   1_655  S
N274        N295   1.338       .  A
N275        N293   1.321       .  A
N275        N280   1.339       .  A
C276        N280   1.362       .  A
C276        C304   1.483       .  S
C276        C427   1.533       .  S
N277        C292   1.355   1_554  A
N277       Co299   2.129       .  S
C278        N306   1.357   1_655  A
C278        C281   1.475   1_654  S
C278        H312   1.082       .  S
C281        N302   1.366       .  A
N282        N288   1.322       .  A
N283        C309   1.331   1_554  A
N283        N285   1.324       .  A
N283       Co299   2.056       .  S
N284        C298   1.334       .  A
N285        N313   1.320       .  A
N285       Co303   2.086       .  S
H286        C309   1.081       .  S
H287        C304   1.081       .  S
N289       Co303   2.069       .  S
N290        N302   1.341   1_554  A
N290        N306   1.320       .  A
N290       Co299   2.148       .  S
C291        N295   1.362       .  A
C291        C305   1.471       .  S
C292        C311   1.474   1_556  S
C292        H296   1.082       .  S
N293        C304   1.359       .  A
N293       Co303   2.149       .  S
C297        N313   1.348       .  A
C297        C309   1.445   1_554  S
C297        C680   1.443   1_554  S
Co299      Cl310   2.457       .  S
N300        C311   1.365       .  A
C301        C584   1.449   1_455  S
Co303      Cl310   2.475       .  S
C314        N332   1.352   1_565  A
C314        C351   1.486       .  S
N315        N332   1.334       .  A
N315        N337   1.321       .  A
N315       Co352   2.106       .  S
C316        N341   1.362   1_556  A
C316        C354   1.485   1_556  S
C316        H361   1.081       .  S
H317        C358   1.081   1_556  S
C318        N342   1.359       .  A
C318        C322   1.479       .  S
C318        H347   1.082       .  S
Co319       N337   2.156       .  S
Co319       N327   2.088       .  S
Co319       N359   2.061       .  S
Co319       N335   2.121       .  S
Co319      Cl363   2.463       .  S
N320        C358   1.331       .  A
N320        N327   1.326       .  A
N320       Co321   2.063       .  S
Co321       N324   2.154       .  S
Co321       N341   2.156       .  S
Co321       N328   2.069       .  S
Co321      Cl363   2.466       .  S
C322        N360   1.366       .  A
N323        N330   1.320       .  A
N323        N353   1.321       .  A
N323       Co356   2.077       .  S
N324        N342   1.322       .  A
N324        N360   1.341       .  A
N325        C354   1.357       .  A
N325        N335   1.335       .  A
H326        C351   1.082       .  S
N327        N348   1.320       .  A
N328        N346   1.323       .  A
N328        N333   1.318       .  A
C329        N333   1.346       .  A
C329        C357   1.444       .  S
C329        C692   1.437       .  S
N330        C345   1.329       .  A
N330       Co352   2.054       .  S
C331        N359   1.332   1_565  A
C331        C334   1.453   1_565  S
C331        H365   1.080       .  S
C334        N355   1.349       .  A
C334        C629   1.459   1_545  S
N335        N341   1.322       .  A
N336        C362   1.357       .  A
N336        N338   1.319       .  A
N336       Co352   2.124       .  S
N337        C351   1.361   1_545  A
N338        N366   1.334       .  A
N338       Co356   2.122       .  S
H339        C362   1.082       .  S
H340        C357   1.081       .  S
N342       Co356   2.136       .  S
N343        N355   1.317       .  A
N343        N359   1.320       .  A
N343       Co352   2.069       .  S
C344        N348   1.348       .  A
C344        C358   1.448       .  S
C344        C860   1.447   1_544  S
C345        C364   1.443       .  S
C345        H349   1.081       .  S
N346        C357   1.330       .  A
N346       Co356   2.055       .  S
C350        N366   1.357       .  A
C350        C362   1.476       .  S
C350        C431   1.514       .  S
Co352      Cl363   2.457       .  S
N353        C364   1.351       .  A
Co356      Cl363   2.462       .  S
C364        C569   1.442       .  S
C367        C368   1.535       .  S
C367        C373   1.526       .  S
C367        C371   1.541       .  S
C367        C557   1.525       .  S
C368        H375   1.086       .  S
C368        C369   1.359       .  D
C369        C370   1.520       .  S
C369        C740   1.456       .  S
C370        C374   1.542       .  S
C370        C372   1.535       .  S
C370        H376   1.107       .  S
C371        H377   1.078       .  S
C371        C372   1.375       .  D
C372        C788   1.490       .  S
C373        H378   1.086       .  S
C373        C374   1.358       .  D
C374        C809   1.470       .  S
C379        C380   1.530       .  S
C379        C385   1.538       .  S
C379        C383   1.531       .  S
C379        C716   1.510       .  S
C380        H387   1.086       .  S
C380        C381   1.362       .  D
C381        C382   1.532       .  S
C381        C545   1.462       .  S
C382        C386   1.525       .  S
C382        C384   1.525       .  S
C382        H388   1.112       .  S
C383        H389   1.087       .  S
C383        C384   1.358       .  D
C384        C836   1.461       .  S
C385        H390   1.079       .  S
C385        C386   1.358       .  D
C386        C800   1.455       .  S
C391        N409   1.361       .  A
C391        C428   1.478       .  S
N392        N409   1.337       .  A
N392        N414   1.322       .  A
N392       Co429   2.139       .  S
C393        N418   1.352       .  A
C393        C431   1.469       .  S
C393        H438   1.082       .  S
H394        C435   1.081       .  S
C395        N419   1.358       .  A
C395        C399   1.479       .  S
C395        H424   1.082       .  S
Co396       N414   2.136       .  S
Co396       N404   2.086       .  S
Co396       N436   2.084       .  S
Co396       N412   2.133       .  S
Co396      Cl440   2.472       .  S
N397        C435   1.329       .  A
N397        N404   1.322       .  A
N397       Co398   2.058       .  S
Co398       N401   2.112       .  S
Co398       N418   2.116       .  S
Co398       N405   2.074       .  S
Co398      Cl440   2.458       .  S
C399        N437   1.356       .  A
C399        C459   1.516       .  S
N400        N407   1.323       .  A
N400        N430   1.321       .  A
N400       Co433   2.079       .  S
N401        N419   1.319       .  A
N401        N437   1.333       .  A
N402        C431   1.361       .  A
N402        N412   1.337       .  A
H403        C428   1.082       .  S
N404        N425   1.323       .  A
N405        N423   1.321       .  A
N405        N410   1.322       .  A
C406        N410   1.350       .  A
C406        C434   1.456       .  S
C406        C560   1.463       .  S
N407        C422   1.333       .  A
N407       Co429   2.069       .  S
C408        N436   1.336       .  A
C408        C411   1.457       .  S
C408        H442   1.081       .  S
C411        N432   1.350       .  A
C411        C524   1.467       .  S
N412        N418   1.321       .  A
N413        C439   1.364       .  A
N413        N415   1.322       .  A
N413       Co429   2.166       .  S
N414        C428   1.358       .  A
N415        N443   1.337       .  A
N415       Co433   2.121       .  S
H416        C439   1.082       .  S
H417        C434   1.082       .  S
N419       Co433   2.135       .  S
N420        N432   1.322       .  A
N420        N436   1.326       .  A
N420       Co429   2.092       .  S
C421        N425   1.352       .  A
C421        C435   1.447       .  S
C421        C536   1.457       .  S
C422        C441   1.448       .  S
C422        H426   1.081       .  S
N423        C434   1.330       .  A
N423       Co433   2.068       .  S
C427        N443   1.357       .  A
C427        C439   1.489       .  S
Co429      Cl440   2.464       .  S
N430        C441   1.348       .  A
Co433      Cl440   2.467       .  S
C441        C548   1.447       .  S
C444        N462   1.345       .  A
C444        C481   1.457       .  S
C444        C884   1.453       .  S
N445        N462   1.319       .  A
N445        N467   1.322       .  A
N445       Co482   2.072       .  S
C446        N471   1.334       .  A
C446        C484   1.454       .  S
C446        H491   1.082       .  S
H447        C488   1.082       .  S
C448        N472   1.333       .  A
C448        C452   1.454       .  S
C448        H477   1.082       .  S
Co449       N467   2.077       .  S
Co449       N457   2.139       .  S
Co449       N489   2.135       .  S
Co449       N465   2.061       .  S
Co449      Cl493   2.457       .  S
N450        C488   1.354       .  A
N450        N457   1.322       .  A
N450       Co451   2.125       .  S
Co451       N454   2.072       .  S
Co451       N471   2.069       .  S
Co451       N458   2.131       .  S
Co451      Cl493   2.468       .  S
C452        N490   1.346       .  A
C452        C704   1.456       .  S
N453        N460   1.322       .  A
N453        N483   1.337       .  A
N453       Co486   2.131       .  S
N454        N472   1.321       .  A
N454        N490   1.322       .  A
N455        C484   1.342       .  A
N455        N465   1.317       .  A
H456        C481   1.082       .  S
N457        N478   1.337       .  A
N458        N476   1.321       .  A
N458        N463   1.338       .  A
C459        N463   1.361       .  A
C459        C487   1.472       .  S
N460        C475   1.350       .  A
N460       Co482   2.120       .  S
C461        N489   1.353       .  A
C461        C464   1.472       .  S
C461        H495   1.081       .  S
C464        N485   1.365       .  A
N465        N471   1.322       .  A
N466        C492   1.335       .  A
N466        N468   1.323       .  A
N466       Co482   2.075       .  S
N467        C481   1.336       .  A
N468        N496   1.320       .  A
N468       Co486   2.067       .  S
H469        C492   1.082       .  S
H470        C487   1.082       .  S
N472       Co486   2.070       .  S
N473        N485   1.341       .  A
N473        N489   1.322       .  A
N473       Co482   2.139       .  S
C474        N478   1.362       .  A
C474        C488   1.472       .  S
C475        C494   1.468       .  S
C475        H479   1.081       .  S
N476        C487   1.352       .  A
N476       Co486   2.127       .  S
C480        N496   1.342       .  A
C480        C492   1.456       .  S
C480        C608   1.450       .  S
Co482      Cl493   2.471       .  S
N483        C494   1.361       .  A
C484        C653   1.444       .  S
Co486      Cl493   2.455       .  S
C497        C498   1.537       .  S
C497        C503   1.536       .  S
C497        C501   1.530       .  S
C497        C533   1.520       .  S
C498        H505   1.084       .  S
C498        C499   1.358       .  D
C499        C500   1.520       .  S
C499        C749   1.457       .  S
C500        C504   1.530       .  S
C500        C502   1.523       .  S
C500        H506   1.109       .  S
C501        H507   1.087       .  S
C501        C502   1.360       .  D
C502        C761   1.455       .  S
C503        H508   1.086       .  S
C503        C504   1.369       .  D
C504        C848   1.468       .  S
C509        C510   1.525       .  S
C509        C515   1.534       .  S
C509        C513   1.531       .  S
C509        C824   1.511       .  S
C510        H517   1.087       .  S
C510        C511   1.356       .  D
C511        C512   1.530       .  S
C511        C776   1.463       .  S
C512        C516   1.537       .  S
C512        C514   1.529       .  S
C512        H518   1.108       .  S
C513        H519   1.080       .  S
C513        C514   1.360       .  D
C514        C728   1.461       .  S
C515        H520   1.086       .  S
C515        C516   1.366       .  D
C516        C521   1.477       .  S
C521        C522   1.403       .  A
C521        C526   1.411       .  A
C522        H531   1.084       .  S
C522        C523   1.392       .  A
C523        C524   1.414       .  A
C523        S527   1.803       .  S
C524        C525   1.400       .  A
C525        H532   1.084       .  S
C525        C526   1.396       .  A
C526        S528   1.797       .  S
S527        H530   1.408       .  S
S528        H529   1.405       .  S
C533        C534   1.414       .  A
C533        C538   1.419       .  A
C534        H543   1.080       .  S
C534        C535   1.390       .  A
C535        C536   1.401       .  A
C535        S539   1.806       .  S
C536        C537   1.401       .  A
C537        H544   1.083       .  S
C537        C538   1.391       .  A
C538        S540   1.808       .  S
S539        H542   1.406       .  S
S540        H541   1.400       .  S
C545        C546   1.400       .  A
C545        C550   1.411       .  A
C546        H555   1.084       .  S
C546        C547   1.387       .  A
C547        C548   1.407       .  A
C547        S551   1.805       .  S
C548        C549   1.399       .  A
C549        H556   1.084       .  S
C549        C550   1.395       .  A
C550        S552   1.804       .  S
S551        H554   1.403       .  S
S552        H553   1.407       .  S
C557        C558   1.415       .  A
C557        C562   1.423       .  A
C558        H567   1.070       .  S
C558        C559   1.397       .  A
C559        C560   1.404       .  A
C559        S563   1.806       .  S
C560        C561   1.396       .  A
C561        H568   1.079       .  S
C561        C562   1.388       .  A
C562        S564   1.812       .  S
S563        H566   1.407       .  S
S564        H565   1.406       .  S
C569        C570   1.396       .  A
C569        C574   1.399       .  A
C570        H579   1.083       .  S
C570        C571   1.390       .  A
C571        C572   1.414       .  A
C571        S575   1.808       .  S
C572        C573   1.408       .  A
C573        H580   1.083       .  S
C573        C574   1.388       .  A
C574        S576   1.804       .  S
S575        H578   1.406       .  S
S576        H577   1.407       .  S
C581        C582   1.403       .  A
C581        C586   1.417       .  A
C582        H591   1.084       .  S
C582        C583   1.379       .  A
C583        C584   1.409       .  A
C583        S587   1.805   1_655  S
C584        C585   1.398       .  A
C585        H592   1.083       .  S
C585        C586   1.395       .  A
C586        S588   1.810       .  S
S587        H590   1.408   1_455  S
S588        H589   1.407       .  S
C593        C594   1.396       .  A
C593        C598   1.412       .  A
C594        H603   1.083       .  S
C594        C595   1.392       .  A
C595        C596   1.412       .  A
C595        S599   1.807       .  S
C596        C597   1.396       .  A
C597        H604   1.083   1_655  S
C597        C598   1.395       .  A
C598        S600   1.808       .  S
S599        H602   1.402       .  S
S600        H601   1.407   1_655  S
C605        C606   1.397       .  A
C605        C610   1.414       .  A
C606        H615   1.083       .  S
C606        C607   1.392       .  A
C607        C608   1.409       .  A
C607        S611   1.804       .  S
C608        C609   1.395       .  A
C609        H616   1.084       .  S
C609        C610   1.392       .  A
C610        S612   1.807       .  S
S611        H614   1.406       .  S
S612        H613   1.404       .  S
C617        C618   1.401       .  A
C617        C622   1.410       .  A
C618        H627   1.083       .  S
C618        C619   1.383       .  A
C619        C620   1.408       .  A
C619        S623   1.804       .  S
C620        C621   1.400       .  A
C621        H628   1.083       .  S
C621        C622   1.398       .  A
C622        S624   1.804       .  S
S623        H626   1.408       .  S
S624        H625   1.406       .  S
C629        C630   1.403   1_565  A
C629        C634   1.415       .  A
C630        H639   1.085       .  S
C630        C631   1.390   1_545  A
C631        C632   1.405       .  A
C631        S635   1.800   1_565  S
C632        C633   1.397       .  A
C633        H640   1.085       .  S
C633        C634   1.385       .  A
C634        S636   1.801       .  S
S635        H638   1.405   1_545  S
S636        H637   1.408       .  S
C641        C642   1.403       .  A
C641        C646   1.407   1_565  A
C642        H651   1.084       .  S
C642        C643   1.386       .  A
C643        C644   1.408       .  A
C643        S647   1.805       .  S
C644        C645   1.400       .  A
C645        H652   1.077       .  S
C645        C646   1.391   1_565  A
C646        S648   1.804       .  S
S647        H650   1.403       .  S
S648        H649   1.406       .  S
C653        C654   1.387       .  A
C653        C658   1.403       .  A
C654        H663   1.083       .  S
C654        C655   1.392       .  A
C655        C656   1.428       .  A
C655        S659   1.815       .  S
C656        C657   1.409       .  A
C657        H664   1.073       .  S
C657        C658   1.393       .  A
C658        S660   1.811       .  S
S659        H662   1.407       .  S
S660        H661   1.407       .  S
C665        C666   1.395       .  A
C665        C670   1.401       .  A
C666        H675   1.083       .  S
C666        C667   1.394       .  A
C667        C668   1.417       .  A
C667        S671   1.805       .  S
C668        C669   1.409       .  A
C669        H676   1.082       .  S
C669        C670   1.389       .  A
C670        S672   1.805       .  S
S671        H674   1.406       .  S
S672        H673   1.407       .  S
C677        C678   1.400       .  A
C677        C682   1.412       .  A
C678        H687   1.083       .  S
C678        C679   1.386       .  A
C679        C680   1.408       .  A
C679        S683   1.807       .  S
C680        C681   1.396       .  A
C681        H688   1.084   1_556  S
C681        C682   1.391       .  A
C682        S684   1.804       .  S
S683        H686   1.404       .  S
S684        H685   1.407       .  S
C689        C690   1.408       .  A
C689        C694   1.422       .  A
C690        H699   1.077       .  S
C690        C691   1.383       .  A
C691        C692   1.404   1_556  A
C691        S695   1.807   1_556  S
C692        C693   1.391   1_554  A
C693        H700   1.083   1_556  S
C693        C694   1.391       .  A
C694        S696   1.812       .  S
S695        H698   1.407       .  S
S696        H697   1.406       .  S
C701        C702   1.398       .  A
C701        C706   1.411       .  A
C702        H711   1.083       .  S
C702        C703   1.389       .  A
C703        C704   1.407       .  A
C703        S707   1.809       .  S
C704        C705   1.400       .  A
C705        H712   1.084       .  S
C705        C706   1.397       .  A
C706        S708   1.807       .  S
S707        H710   1.407       .  S
S708        H709   1.401       .  S
C713        C714   1.395       .  A
C713        C718   1.400       .  A
C714        H723   1.083       .  S
C714        C715   1.387       .  A
C715        C716   1.422       .  A
C715        S719   1.814       .  S
C716        C717   1.411       .  A
C717        H724   1.072       .  S
C717        C718   1.386       .  A
C718        S720   1.808       .  S
S719        H722   1.407       .  S
S720        H721   1.406       .  S
C725        C726   1.400   1_556  A
C725        C730   1.400   1_545  A
C726        H735   1.084       .  S
C726        C727   1.394       .  A
C727        C728   1.408       .  A
C727        S731   1.807       .  S
C728        C729   1.405       .  A
C729        H736   1.084       .  S
C729        C730   1.383   1_544  A
C730        S732   1.804       .  S
S731        H734   1.406       .  S
S732        H733   1.406       .  S
C737        C738   1.406   1_556  A
C737        C742   1.416       .  A
C738        H747   1.084       .  S
C738        C739   1.387       .  A
C739        C740   1.402       .  A
C739        S743   1.796       .  S
C740        C741   1.397       .  A
C741        H748   1.084   1_554  S
C741        C742   1.393   1_554  A
C742        S744   1.801       .  S
S743        H746   1.407       .  S
S744        H745   1.407       .  S
C749        C750   1.398       .  A
C749        C754   1.408       .  A
C750        H759   1.085       .  S
C750        C751   1.377       .  A
C751        C752   1.413       .  A
C751        S755   1.805       .  S
C752        C753   1.401   1_545  A
C753        H760   1.084       .  S
C753        C754   1.394   1_565  A
C754        S756   1.801   1_545  S
S755        H758   1.407       .  S
S756        H757   1.405   1_565  S
C761        C762   1.395       .  A
C761        C766   1.404       .  A
C762        H771   1.085       .  S
C762        C763   1.386       .  A
C763        C764   1.415       .  A
C763        S767   1.804       .  S
C764        C765   1.406       .  A
C765        H772   1.082       .  S
C765        C766   1.393       .  A
C766        S768   1.797       .  S
S767        H770   1.408       .  S
S768        H769   1.404       .  S
C773        C774   1.405   1_554  A
C773        C778   1.414       .  A
C774        H783   1.082       .  S
C774        C775   1.394   1_556  A
C775        C776   1.407       .  A
C775        S779   1.800   1_554  S
C776        C777   1.399       .  A
C777        H784   1.085       .  S
C777        C778   1.387       .  A
C778        S780   1.803   1_455  S
S779        H782   1.406       .  S
S780        H781   1.408       .  S
C785        C786   1.399       .  A
C785        C790   1.414       .  A
C786        H795   1.083       .  S
C786        C787   1.397   1_556  A
C787        C788   1.413       .  A
C787        S791   1.797       .  S
C788        C789   1.405   1_554  A
C789        H796   1.083       .  S
C789        C790   1.394       .  A
C790        S792   1.810       .  S
S791        H794   1.406       .  S
S792        H793   1.407       .  S
C797        C798   1.395       .  A
C797        C802   1.409   1_655  A
C798        H807   1.085       .  S
C798        C799   1.391   1_655  A
C799        C800   1.413       .  A
C799        S803   1.807   1_455  S
C800        C801   1.397       .  A
C801        H808   1.085       .  S
C801        C802   1.388       .  A
C802        S804   1.803       .  S
S803        H806   1.403   1_655  S
S804        H805   1.404   1_455  S
C809        C810   1.397       .  A
C809        C814   1.413       .  A
C810        H819   1.072       .  S
C810        C811   1.391       .  A
C811        C812   1.407       .  A
C811        S815   1.803       .  S
C812        C813   1.401       .  A
C813        H820   1.084       .  S
C813        C814   1.387       .  A
C814        S816   1.799       .  S
S815        H818   1.407       .  S
S816        H817   1.393       .  S
C821        C822   1.395   1_565  A
C821        C826   1.398   1_655  A
C822        H831   1.082       .  S
C822        C823   1.387   1_655  A
C823        C824   1.419       .  A
C823        S827   1.815       .  S
C824        C825   1.414   1_545  A
C825        H832   1.072       .  S
C825        C826   1.390       .  A
C826        S828   1.811       .  S
S827        H830   1.407   1_455  S
S828        H829   1.407       .  S
C833        C834   1.404       .  A
C833        C838   1.411   1_455  A
C834        H843   1.083       .  S
C834        C835   1.390       .  A
C835        C836   1.408       .  A
C835        S839   1.805       .  S
C836        C837   1.399       .  A
C837        H844   1.083       .  S
C837        C838   1.390   1_455  A
C838        S840   1.804       .  S
S839        H842   1.406       .  S
S840        H841   1.407       .  S
C845        C846   1.396   1_565  A
C845        C850   1.409   1_565  A
C846        H855   1.083   1_545  S
C846        C847   1.394       .  A
C847        C848   1.411       .  A
C847        S851   1.803       .  S
C848        C849   1.403       .  A
C849        H856   1.084       .  S
C849        C850   1.387       .  A
C850        S852   1.804   1_545  S
S851        H854   1.407       .  S
S852        H853   1.407       .  S
C857        C858   1.409       .  A
C857        C862   1.427       .  A
C858        H867   1.083       .  S
C858        C859   1.387       .  A
C859        C860   1.404       .  A
C859        S863   1.805       .  S
C860        C861   1.389       .  A
C861        H868   1.084   1_556  S
C861        C862   1.395       .  A
C862        S864   1.801       .  S
S863        H866   1.407       .  S
S864        H865   1.407   1_556  S
C869        C870   1.402       .  A
C869        C874   1.406       .  A
C870        H879   1.083       .  S
C870        C871   1.391   1_655  A
C871        C872   1.410   1_465  A
C871        S875   1.804       .  S
C872        C873   1.406       .  A
C873        H880   1.084       .  S
C873        C874   1.390   1_545  A
C874        S876   1.804       .  S
S875        H878   1.407   1_565  S
S876        H877   1.406       .  S
C881        C882   1.408       .  A
C881        C886   1.425       .  A
C882        H891   1.077       .  S
C882        C883   1.390       .  A
C883        C884   1.407       .  A
C883        S887   1.807       .  S
C884        C885   1.394       .  A
C885        H892   1.083       .  S
C885        C886   1.399       .  A
C886        S888   1.812       .  S
S887        H890   1.402       .  S
S888        H889   1.407       .  S
C893        C894   1.395       .  A
C893        C898   1.407       .  A
C894        H903   1.082       .  S
C894        C895   1.385   1_556  A
C895        C896   1.407   1_654  A
C895        S899   1.802       .  S
C896        C897   1.409       .  A
C897        H904   1.084       .  S
C897        C898   1.391   1_455  A
C898        S900   1.810   1_655  S
S899        H902   1.408   1_655  S
S900        H901   1.400   1_455  S
