geometry optimzed in LAMMPS
_audit_creation_date              2020-11-30 
_audit_creation_method            'lammps2cif' 
_symmetry_space_group_name_H-M    'P1' 
_symmetry_Int_Tables_number       1 
_symmetry_cell_setting            triclinic 
loop_ 
_symmetry_equiv_pos_as_xyz 
  x,y,z 
_cell_length_a                    22.3315245407538 
_cell_length_b                    22.338177092220526 
_cell_length_c                    22.678103684894026 
_cell_angle_alpha                 90.00082457335299 
_cell_angle_beta                  89.99956875803447 
_cell_angle_gamma                 120.02855657313242 
loop_ 
_atom_site_label 
_atom_site_type_symbol 
_atom_site_fract_x 
_atom_site_fract_y 
_atom_site_fract_z 
_atom_site_charge 
C1          C  0.18048668  0.33972601  0.35546884     0.01600
C2          C  0.34717920  0.17333979  0.28505340     0.01600
C3          C  0.18049270  0.34023333  0.28896985     0.01600
C4          C  0.34718001  0.17322453  0.35935194     0.01600
O5          O  0.06352400  0.35898314  0.00290562    -0.84090
C6          C  0.30464037  0.40378257  0.16263861     1.15950
O7          O  0.05446740  0.46617770  0.07227594    -1.31900
O8          O  0.30995994  0.35351770  0.00907325    -0.85570
O9          O  0.16668209  0.45582516  0.00907131    -0.86240
O10         O  0.10037390  0.04915140  0.44625602    -0.75060
O11         O  0.43143003  0.34397923  0.01462553    -0.97150
C12         C  0.44032434  0.08272600  0.46114667     1.26000
O13         O  0.05425199  0.08775860  0.07213730    -1.32040
Mn14       Mn  0.01377635  0.00669122  0.13761754     1.82050
O15         O  0.47111384  0.05036982  0.44615735    -0.74130
O16         O  0.31662649  0.45673648  0.00244918    -0.83530
C17         C  0.43718506  0.07985305  0.18300780     1.17080
C18         C  0.30462520  0.39957213  0.48177967     1.11800
O19         O  0.10037397  0.05086869  0.19815432    -0.75070
O20         O  0.43261504  0.46590797  0.07220591    -1.28770
O21         O  0.17633788  0.08945799  0.12991991    -0.94280
C22         C  0.11611037  0.21551003  0.48151714     1.10520
Mn23       Mn  0.37295764  0.01744013  0.07067490     1.48570
O24         O  0.16132730  0.20373321  0.00242419    -0.83480
Mn25       Mn  0.16576660  0.01811669  0.07367905     1.49560
O26         O  0.06521770  0.35448320  0.13584619    -0.87360
C27         C  0.43750270  0.35674961  0.46140306     1.23710
C28         C  0.11676983  0.40074014  0.16290284     1.15770
Mn29       Mn  0.01377689  0.00653862  0.00679468     1.80970
O30         O  0.43101547  0.08644442  0.12978350    -0.92510
Mn31       Mn  0.00287489  0.35495090  0.07101657     1.49260
C32         C  0.12066360  0.40406527  0.48208023     1.12290
Mn33       Mn  0.00234690  0.14709865  0.07339745     1.49930
C34         C  0.11999894  0.21605490  0.16234427     1.15200
O35         O  0.17633942  0.08680723  0.01448890    -0.98310
O36         O  0.30983760  0.45513453  0.13536437    -0.87980
C37         C  0.16354080  0.07998654  0.46127755     1.26480
O38         O  0.43357523  0.08878006  0.01434876    -0.98700
O39         O  0.31675031  0.35871793  0.14194060    -0.86100
O40         O  0.06285981  0.20388427  0.14147844    -0.85710
O41         O  0.16188829  0.45776485  0.14194948    -0.85730
Mn42       Mn  0.37322797  0.35464495  0.07373339     1.47860
O43         O  0.46968504  0.04923178  0.19806389    -0.74210
C44         C  0.16353941  0.08335141  0.18313282     1.19530
O45         O  0.46985376  0.41988986  0.44634867    -0.72940
O46         O  0.47127876  0.42018047  0.19825207    -0.72550
Mn47       Mn  0.16550409  0.14743114  0.07072982     1.51060
O48         O  0.06456805  0.21011483  0.00862714    -0.84900
O49         O  0.43398771  0.34421414  0.13005874    -0.92430
O50         O  0.16612238  0.21047564  0.13538141    -0.87440
C51         C  0.44063700  0.35702225  0.18326199     1.17320
C52         C  0.38418303  0.13770114  0.38671355    -0.09180
C53         C  0.41121916  0.11151171  0.41739134    -0.10740
C54         C  0.27466041  0.13617027  0.38678881    -0.09180
C55         C  0.22145492  0.10911036  0.41752162    -0.10740
C56         C  0.40877769  0.29884061  0.41765268    -0.09180
C57         C  0.38267297  0.24568166  0.38687666    -0.10740
C58         C  0.15114997  0.27295851  0.26263570    -0.09180
C59         C  0.13348665  0.23779957  0.22035283    -0.10740
C60         C  0.14236642  0.36970785  0.26324953    -0.09180
C61         C  0.12480539  0.38744503  0.22104620    -0.10740
C62         C  0.28321157  0.39595070  0.22073935    -0.09180
C63         C  0.24797287  0.37850489  0.26298878    -0.10740
C64         C  0.40851664  0.10908804  0.22675409    -0.09180
C65         C  0.38250567  0.13622846  0.25752454    -0.10830
C66         C  0.27466095  0.13802823  0.25761810    -0.09180
C67         C  0.22145537  0.11202254  0.22688749    -0.10740
C68         C  0.38434579  0.24588318  0.25769602    -0.09180
C69         C  0.41147413  0.29911886  0.22701669    -0.10740
C70         C  0.14178260  0.27215195  0.38117978    -0.09180
C71         C  0.12402904  0.23683523  0.42337711    -0.10740
C72         C  0.15176668  0.37820980  0.38180940    -0.09180
C73         C  0.13428152  0.39588533  0.42408798    -0.10740
C74         C  0.24790910  0.36832458  0.38144908    -0.09180
C75         C  0.28315843  0.38587420  0.42369216    -0.10740
C76         C  0.18048667  0.33972601  0.85546884     0.01600
C77         C  0.34717920  0.17333979  0.78505340     0.01600
C78         C  0.18049270  0.34023333  0.78896985     0.01600
C79         C  0.34718001  0.17322453  0.85935194     0.01600
O80         O  0.06352398  0.35898312  0.50290562    -0.84090
C81         C  0.30464037  0.40378260  0.66263861     1.15950
O82         O  0.05446740  0.46617770  0.57227594    -1.31900
O83         O  0.30995994  0.35351773  0.50907325    -0.85570
O84         O  0.16668207  0.45582513  0.50907131    -0.86240
O85         O  0.10037390  0.04915141  0.94625602    -0.75060
O86         O  0.43143001  0.34397923  0.51462553    -0.97150
C87         C  0.44032433  0.08272598  0.96114667     1.26000
O88         O  0.05425200  0.08775860  0.57213730    -1.32040
Mn89       Mn  0.01377635  0.00669122  0.63761754     1.82050
O90         O  0.47111383  0.05036981  0.94615735    -0.74130
O91         O  0.31662650  0.45673652  0.50244918    -0.83530
C92         C  0.43718508  0.07985307  0.68300780     1.17080
C93         C  0.30462520  0.39957209  0.98177967     1.11800
O94         O  0.10037397  0.05086868  0.69815432    -0.75070
O95         O  0.43261504  0.46590798  0.57220592    -1.28770
O96         O  0.17633788  0.08945797  0.62991991    -0.94280
C97         C  0.11611033  0.21551003  0.98151714     1.10520
Mn98       Mn  0.37295766  0.01744016  0.57067490     1.48570
O99         O  0.16132733  0.20373321  0.50242419    -0.83480
Mn100      Mn  0.16576658  0.01811666  0.57367905     1.49560
O101        O  0.06521767  0.35448318  0.63584618    -0.87360
C102        C  0.43750271  0.35674961  0.96140305     1.23710
C103        C  0.11676980  0.40074011  0.66290284     1.15770
Mn104      Mn  0.01377689  0.00653862  0.50679468     1.80970
O105        O  0.43101550  0.08644445  0.62978350    -0.92510
Mn106      Mn  0.00287487  0.35495089  0.57101657     1.49260
C107        C  0.12066363  0.40406530  0.98208023     1.12290
Mn108      Mn  0.00234693  0.14709867  0.57339745     1.49930
C109        C  0.11999898  0.21605491  0.66234427     1.15200
O110        O  0.17633942  0.08680721  0.51448890    -0.98310
O111        O  0.30983761  0.45513457  0.63536437    -0.87980
C112        C  0.16354080  0.07998656  0.96127755     1.26480
O113        O  0.43357525  0.08878009  0.51434876    -0.98700
O114        O  0.31675030  0.35871795  0.64194060    -0.86100
O115        O  0.06285985  0.20388428  0.64147844    -0.85710
O116        O  0.16188826  0.45776482  0.64194949    -0.85730
Mn117      Mn  0.37322796  0.35464497  0.57373339     1.47860
O118        O  0.46968505  0.04923179  0.69806389    -0.74210
C119        C  0.16353941  0.08335139  0.68313282     1.19530
O120        O  0.46985377  0.41988986  0.94634867    -0.72940
O121        O  0.47127875  0.42018047  0.69825207    -0.72550
Mn122      Mn  0.16550410  0.14743113  0.57072982     1.51060
O123        O  0.06456809  0.21011484  0.50862714    -0.84900
O124        O  0.43398770  0.34421414  0.63005875    -0.92430
O125        O  0.16612241  0.21047564  0.63538141    -0.87440
C126        C  0.44063699  0.35702225  0.68326199     1.17320
C127        C  0.38418303  0.13770113  0.88671355    -0.09180
C128        C  0.41121915  0.11151170  0.91739134    -0.10740
C129        C  0.27466041  0.13617028  0.88678881    -0.09180
C130        C  0.22145492  0.10911037  0.91752162    -0.10740
C131        C  0.40877770  0.29884061  0.91765268    -0.09180
C132        C  0.38267298  0.24568166  0.88687666    -0.10740
C133        C  0.15115000  0.27295851  0.76263570    -0.09180
C134        C  0.13348670  0.23779957  0.72035283    -0.10740
C135        C  0.14236638  0.36970781  0.76324953    -0.09180
C136        C  0.12480535  0.38744500  0.72104620    -0.10740
C137        C  0.28321157  0.39595074  0.72073935    -0.09180
C138        C  0.24797287  0.37850492  0.76298879    -0.10740
C139        C  0.40851666  0.10908805  0.72675410    -0.09180
C140        C  0.38250568  0.13622847  0.75752454    -0.10830
C141        C  0.27466095  0.13802822  0.75761810    -0.09180
C142        C  0.22145537  0.11202253  0.72688749    -0.10740
C143        C  0.38434579  0.24588318  0.75769602    -0.09180
C144        C  0.41147412  0.29911887  0.72701669    -0.10740
C145        C  0.14178256  0.27215194  0.88117977    -0.09180
C146        C  0.12402900  0.23683522  0.92337711    -0.10740
C147        C  0.15176671  0.37820982  0.88180940    -0.09180
C148        C  0.13428155  0.39588536  0.92408798    -0.10740
C149        C  0.24790910  0.36832454  0.88144908    -0.09180
C150        C  0.28315842  0.38587416  0.92369216    -0.10740
C151        C  0.18048667  0.83972601  0.35546884     0.01600
C152        C  0.34717919  0.67333979  0.28505340     0.01600
C153        C  0.18049271  0.84023333  0.28896985     0.01600
C154        C  0.34718001  0.67322453  0.35935194     0.01600
O155        O  0.06352401  0.85898312  0.00290564    -0.84090
C156        C  0.30464037  0.90378254  0.16263861     1.15950
O157        O  0.05446741  0.96617770  0.07227594    -1.31900
O158        O  0.30995997  0.85351772  0.00907322    -0.85570
O159        O  0.16668208  0.95582517  0.00907128    -0.86240
O160        O  0.10037391  0.54915140  0.44625603    -0.75060
O161        O  0.43143005  0.84397923  0.01462553    -0.97150
C162        C  0.44032435  0.58272600  0.46114666     1.26000
O163        O  0.05425199  0.58775860  0.07213730    -1.32040
Mn164      Mn  0.01377634  0.50669122  0.13761754     1.82050
O165        O  0.47111384  0.55036982  0.44615734    -0.74130
O166        O  0.31662648  0.95673648  0.00244920    -0.83530
C167        C  0.43718505  0.57985305  0.18300779     1.17080
C168        C  0.30462521  0.89957215  0.48177968     1.11800
O169        O  0.10037395  0.55086869  0.19815432    -0.75070
O170        O  0.43261505  0.96590797  0.07220592    -1.28770
O171        O  0.17633787  0.58945799  0.12991992    -0.94280
C172        C  0.11611038  0.71551003  0.48151714     1.10520
Mn173      Mn  0.37295764  0.51744013  0.07067488     1.48570
O174        O  0.16132732  0.70373322  0.00242420    -0.83480
Mn175      Mn  0.16576659  0.51811668  0.07367906     1.49560
O176        O  0.06521770  0.85448322  0.13584621    -0.87360
C177        C  0.43750271  0.85674962  0.46140305     1.23710
C178        C  0.11676986  0.90074016  0.16290284     1.15770
Mn179      Mn  0.01377689  0.50653862  0.00679468     1.80970
O180        O  0.43101546  0.58644442  0.12978349    -0.92510
Mn181      Mn  0.00287490  0.85495090  0.07101658     1.49260
C182        C  0.12066358  0.90406525  0.48208023     1.12290
Mn183      Mn  0.00234689  0.64709865  0.07339744     1.49930
C184        C  0.11999892  0.71605490  0.16234427     1.15200
O185        O  0.17633942  0.58680723  0.01448891    -0.98310
O186        O  0.30983763  0.95513453  0.13536440    -0.87980
C187        C  0.16354081  0.57998654  0.46127756     1.26480
O188        O  0.43357523  0.58878006  0.01434875    -0.98700
O189        O  0.31675029  0.85871790  0.14194057    -0.86100
O190        O  0.06285980  0.70388428  0.14147842    -0.85710
O191        O  0.16188832  0.95776486  0.14194946    -0.85730
Mn192      Mn  0.37322798  0.85464495  0.07373338     1.47860
O193        O  0.46968502  0.54923178  0.19806388    -0.74210
C194        C  0.16353940  0.58335141  0.18313283     1.19530
O195        O  0.46985377  0.91988986  0.44634867    -0.72940
O196        O  0.47127876  0.92018047  0.19825207    -0.72550
Mn197      Mn  0.16550409  0.64743114  0.07072983     1.51060
O198        O  0.06456805  0.71011482  0.00862713    -0.84900
O199        O  0.43398772  0.84421414  0.13005874    -0.92430
O200        O  0.16612236  0.71047563  0.13538143    -0.87440
C201        C  0.44063700  0.85702225  0.18326199     1.17320
C202        C  0.38418304  0.63770114  0.38671354    -0.09180
C203        C  0.41121917  0.61151171  0.41739134    -0.10740
C204        C  0.27466042  0.63617027  0.38678882    -0.09180
C205        C  0.22145493  0.60911036  0.41752163    -0.10740
C206        C  0.40877770  0.79884061  0.41765268    -0.09180
C207        C  0.38267298  0.74568166  0.38687666    -0.10740
C208        C  0.15114992  0.77295850  0.26263570    -0.09180
C209        C  0.13348661  0.73779957  0.22035283    -0.10740
C210        C  0.14236647  0.86970790  0.26324952    -0.09180
C211        C  0.12480544  0.88744508  0.22104619    -0.10740
C212        C  0.28321157  0.89595065  0.22073935    -0.09180
C213        C  0.24797288  0.87850484  0.26298878    -0.10740
C214        C  0.40851663  0.60908804  0.22675409    -0.09180
C215        C  0.38250566  0.63622846  0.25752453    -0.10830
C216        C  0.27466094  0.63802823  0.25761810    -0.09180
C217        C  0.22145536  0.61202254  0.22688749    -0.10740
C218        C  0.38434579  0.74588318  0.25769602    -0.09180
C219        C  0.41147412  0.79911886  0.22701669    -0.10740
C220        C  0.14178263  0.77215194  0.38117978    -0.09180
C221        C  0.12402907  0.73683522  0.42337711    -0.10740
C222        C  0.15176663  0.87820975  0.38180940    -0.09180
C223        C  0.13428147  0.89588529  0.42408797    -0.10740
C224        C  0.24790910  0.86832462  0.38144908    -0.09180
C225        C  0.28315843  0.88587425  0.42369216    -0.10740
C226        C  0.18048667  0.83972601  0.85546884     0.01600
C227        C  0.34717919  0.67333979  0.78505340     0.01600
C228        C  0.18049271  0.84023333  0.78896985     0.01600
C229        C  0.34718001  0.67322453  0.85935194     0.01600
O230        O  0.06352397  0.85898309  0.50290565    -0.84090
C231        C  0.30464037  0.90378258  0.66263861     1.15950
O232        O  0.05446740  0.96617769  0.57227594    -1.31900
O233        O  0.30995997  0.85351776  0.50907322    -0.85570
O234        O  0.16668204  0.95582513  0.50907128    -0.86240
O235        O  0.10037391  0.54915141  0.94625603    -0.75060
O236        O  0.43143002  0.84397923  0.51462553    -0.97150
C237        C  0.44032433  0.58272598  0.96114666     1.26000
O238        O  0.05425200  0.58775860  0.57213730    -1.32040
Mn239      Mn  0.01377634  0.50669122  0.63761754     1.82050
O240        O  0.47111383  0.55036981  0.94615734    -0.74130
O241        O  0.31662648  0.95673652  0.50244921    -0.83530
C242        C  0.43718507  0.57985307  0.68300779     1.17080
C243        C  0.30462521  0.89957211  0.98177967     1.11800
O244        O  0.10037395  0.55086868  0.69815432    -0.75070
O245        O  0.43261504  0.96590798  0.57220592    -1.28770
O246        O  0.17633787  0.58945797  0.62991992    -0.94280
C247        C  0.11611034  0.71551003  0.98151714     1.10520
Mn248      Mn  0.37295765  0.51744016  0.57067489     1.48570
O249        O  0.16132735  0.70373322  0.50242421    -0.83480
Mn250      Mn  0.16576658  0.51811666  0.57367906     1.49560
O251        O  0.06521766  0.85448319  0.63584621    -0.87360
C252        C  0.43750273  0.85674962  0.96140305     1.23710
C253        C  0.11676982  0.90074012  0.66290284     1.15770
Mn254      Mn  0.01377689  0.50653862  0.50679468     1.80970
O255        O  0.43101548  0.58644445  0.62978350    -0.92510
Mn256      Mn  0.00287487  0.85495089  0.57101659     1.49260
C257        C  0.12066362  0.90406529  0.98208023     1.12290
Mn258      Mn  0.00234692  0.64709866  0.57339744     1.49930
C259        C  0.11999895  0.71605491  0.66234427     1.15200
O260        O  0.17633943  0.58680721  0.51448891    -0.98310
O261        O  0.30983764  0.95513458  0.63536440    -0.87980
C262        C  0.16354081  0.57998656  0.96127756     1.26480
O263        O  0.43357525  0.58878008  0.51434875    -0.98700
O264        O  0.31675028  0.85871793  0.64194058    -0.86100
O265        O  0.06285983  0.70388429  0.64147842    -0.85710
O266        O  0.16188829  0.95776482  0.64194946    -0.85730
Mn267      Mn  0.37322796  0.85464497  0.57373338     1.47860
O268        O  0.46968503  0.54923179  0.69806388    -0.74210
C269        C  0.16353940  0.58335139  0.68313283     1.19530
O270        O  0.46985378  0.91988986  0.94634867    -0.72940
O271        O  0.47127875  0.92018047  0.69825207    -0.72550
Mn272      Mn  0.16550410  0.64743112  0.57072984     1.51060
O273        O  0.06456808  0.71011482  0.50862712    -0.84900
O274        O  0.43398769  0.84421414  0.63005874    -0.92430
O275        O  0.16612238  0.71047563  0.63538143    -0.87440
C276        C  0.44063698  0.85702225  0.68326199     1.17320
C277        C  0.38418303  0.63770113  0.88671354    -0.09180
C278        C  0.41121916  0.61151169  0.91739133    -0.10740
C279        C  0.27466042  0.63617028  0.88678882    -0.09180
C280        C  0.22145493  0.60911037  0.91752163    -0.10740
C281        C  0.40877771  0.79884061  0.91765268    -0.09180
C282        C  0.38267299  0.74568166  0.88687666    -0.10740
C283        C  0.15114996  0.77295851  0.76263570    -0.09180
C284        C  0.13348665  0.73779957  0.72035283    -0.10740
C285        C  0.14236643  0.86970786  0.76324953    -0.09180
C286        C  0.12480540  0.88744504  0.72104620    -0.10740
C287        C  0.28321157  0.89595070  0.72073935    -0.09180
C288        C  0.24797288  0.87850488  0.76298879    -0.10740
C289        C  0.40851664  0.60908805  0.72675409    -0.09180
C290        C  0.38250567  0.63622847  0.75752453    -0.10830
C291        C  0.27466094  0.63802823  0.75761811    -0.09180
C292        C  0.22145536  0.61202253  0.72688750    -0.10740
C293        C  0.38434578  0.74588318  0.75769602    -0.09180
C294        C  0.41147411  0.79911887  0.72701669    -0.10740
C295        C  0.14178259  0.77215194  0.88117977    -0.09180
C296        C  0.12402903  0.73683522  0.92337711    -0.10740
C297        C  0.15176668  0.87820979  0.88180940    -0.09180
C298        C  0.13428152  0.89588533  0.92408798    -0.10740
C299        C  0.24790910  0.86832457  0.88144908    -0.09180
C300        C  0.28315842  0.88587419  0.92369216    -0.10740
C301        C  0.68048668  0.33972601  0.35546884     0.01600
C302        C  0.84717920  0.17333979  0.28505340     0.01600
C303        C  0.68049270  0.34023333  0.28896985     0.01600
C304        C  0.84718001  0.17322453  0.35935194     0.01600
O305        O  0.56352400  0.35898314  0.00290562    -0.84090
C306        C  0.80464037  0.40378256  0.16263861     1.15950
O307        O  0.55446740  0.46617770  0.07227594    -1.31900
O308        O  0.80995994  0.35351771  0.00907324    -0.85570
O309        O  0.66668208  0.45582516  0.00907130    -0.86240
O310        O  0.60037390  0.04915140  0.44625602    -0.75060
O311        O  0.93143003  0.34397923  0.01462553    -0.97150
C312        C  0.94032434  0.08272600  0.46114667     1.26000
O313        O  0.55425199  0.08775860  0.07213730    -1.32040
Mn314      Mn  0.51377635  0.00669122  0.13761754     1.82050
O315        O  0.97111383  0.05036982  0.44615735    -0.74130
O316        O  0.81662649  0.45673648  0.00244918    -0.83530
C317        C  0.93718506  0.07985305  0.18300780     1.17080
C318        C  0.80462520  0.39957213  0.48177967     1.11800
O319        O  0.60037397  0.05086869  0.19815432    -0.75070
O320        O  0.93261504  0.46590797  0.07220591    -1.28770
O321        O  0.67633788  0.08945799  0.12991991    -0.94280
C322        C  0.61611037  0.21551003  0.48151714     1.10520
Mn323      Mn  0.87295764  0.01744013  0.07067490     1.48570
O324        O  0.66132731  0.20373322  0.00242419    -0.83480
Mn325      Mn  0.66576660  0.01811669  0.07367905     1.49560
O326        O  0.56521769  0.35448320  0.13584619    -0.87360
C327        C  0.93750270  0.35674962  0.46140305     1.23710
C328        C  0.61676983  0.40074014  0.16290284     1.15770
Mn329      Mn  0.51377689  0.00653862  0.00679468     1.80970
O330        O  0.93101547  0.08644442  0.12978350    -0.92510
Mn331      Mn  0.50287489  0.35495090  0.07101658     1.49260
C332        C  0.62066359  0.40406527  0.48208023     1.12290
Mn333      Mn  0.50234690  0.14709865  0.07339745     1.49930
C334        C  0.61999894  0.21605491  0.16234427     1.15200
O335        O  0.67633942  0.08680723  0.01448890    -0.98310
O336        O  0.80983760  0.45513453  0.13536437    -0.87980
C337        C  0.66354080  0.07998654  0.46127755     1.26480
O338        O  0.93357523  0.08878006  0.01434876    -0.98700
O339        O  0.81675030  0.35871792  0.14194059    -0.86100
O340        O  0.56285981  0.20388427  0.14147844    -0.85710
O341        O  0.66188829  0.45776485  0.14194948    -0.85730
Mn342      Mn  0.87322797  0.35464495  0.07373339     1.47860
O343        O  0.96968504  0.04923178  0.19806389    -0.74210
C344        C  0.66353941  0.08335141  0.18313282     1.19530
O345        O  0.96985377  0.41988986  0.44634867    -0.72940
O346        O  0.97127876  0.42018046  0.19825207    -0.72550
Mn347      Mn  0.66550409  0.14743114  0.07072983     1.51060
O348        O  0.56456805  0.21011483  0.00862714    -0.84900
O349        O  0.93398771  0.34421414  0.13005874    -0.92430
O350        O  0.66612237  0.21047564  0.13538142    -0.87440
C351        C  0.94063700  0.35702225  0.18326199     1.17320
C352        C  0.88418303  0.13770114  0.38671355    -0.09180
C353        C  0.91121916  0.11151171  0.41739134    -0.10740
C354        C  0.77466042  0.13617027  0.38678881    -0.09180
C355        C  0.72145492  0.10911036  0.41752162    -0.10740
C356        C  0.90877769  0.29884061  0.41765268    -0.09180
C357        C  0.88267297  0.24568166  0.38687666    -0.10740
C358        C  0.65114996  0.27295851  0.26263570    -0.09180
C359        C  0.63348665  0.23779957  0.22035283    -0.10740
C360        C  0.64236642  0.36970786  0.26324953    -0.09180
C361        C  0.62480540  0.38744504  0.22104620    -0.10740
C362        C  0.78321157  0.39595069  0.22073935    -0.09180
C363        C  0.74797287  0.37850488  0.26298878    -0.10740
C364        C  0.90851664  0.10908804  0.22675409    -0.09180
C365        C  0.88250567  0.13622846  0.25752454    -0.10830
C366        C  0.77466095  0.13802823  0.25761810    -0.09180
C367        C  0.72145537  0.11202254  0.22688749    -0.10740
C368        C  0.88434580  0.24588318  0.25769602    -0.09180
C369        C  0.91147413  0.29911886  0.22701669    -0.10740
C370        C  0.64178260  0.27215195  0.38117977    -0.09180
C371        C  0.62402905  0.23683523  0.42337711    -0.10740
C372        C  0.65176667  0.37820979  0.38180940    -0.09180
C373        C  0.63428151  0.39588532  0.42408798    -0.10740
C374        C  0.74790910  0.36832459  0.38144908    -0.09180
C375        C  0.78315843  0.38587420  0.42369216    -0.10740
C376        C  0.68048667  0.33972601  0.85546884     0.01600
C377        C  0.84717920  0.17333979  0.78505340     0.01600
C378        C  0.68049270  0.34023333  0.78896985     0.01600
C379        C  0.84718001  0.17322453  0.85935194     0.01600
O380        O  0.56352397  0.35898311  0.50290562    -0.84090
C381        C  0.80464037  0.40378259  0.66263861     1.15950
O382        O  0.55446739  0.46617769  0.57227594    -1.31900
O383        O  0.80995994  0.35351773  0.50907324    -0.85570
O384        O  0.66668206  0.45582513  0.50907130    -0.86240
O385        O  0.60037390  0.04915141  0.94625602    -0.75060
O386        O  0.93143001  0.34397923  0.51462553    -0.97150
C387        C  0.94032433  0.08272598  0.96114667     1.26000
O388        O  0.55425200  0.08775860  0.57213730    -1.32040
Mn389      Mn  0.51377635  0.00669122  0.63761754     1.82050
O390        O  0.97111383  0.05036981  0.94615735    -0.74130
O391        O  0.81662649  0.45673651  0.50244919    -0.83530
C392        C  0.93718508  0.07985307  0.68300780     1.17080
C393        C  0.80462520  0.39957210  0.98177967     1.11800
O394        O  0.60037397  0.05086868  0.69815432    -0.75070
O395        O  0.93261504  0.46590798  0.57220591    -1.28770
O396        O  0.67633788  0.08945797  0.62991991    -0.94280
C397        C  0.61611033  0.21551003  0.98151714     1.10520
Mn398      Mn  0.87295766  0.01744016  0.57067490     1.48570
O399        O  0.66132734  0.20373321  0.50242419    -0.83480
Mn400      Mn  0.66576658  0.01811666  0.57367905     1.49560
O401        O  0.56521766  0.35448318  0.63584619    -0.87360
C402        C  0.93750271  0.35674961  0.96140305     1.23710
C403        C  0.61676980  0.40074011  0.66290284     1.15770
Mn404      Mn  0.51377689  0.00653862  0.50679468     1.80970
O405        O  0.93101550  0.08644445  0.62978351    -0.92510
Mn406      Mn  0.50287487  0.35495089  0.57101658     1.49260
C407        C  0.62066362  0.40406530  0.98208023     1.12290
Mn408      Mn  0.50234693  0.14709867  0.57339745     1.49930
C409        C  0.61999898  0.21605491  0.66234427     1.15200
O410        O  0.67633942  0.08680721  0.51448890    -0.98310
O411        O  0.80983761  0.45513456  0.63536437    -0.87980
C412        C  0.66354080  0.07998656  0.96127755     1.26480
O413        O  0.93357525  0.08878009  0.51434876    -0.98700
O414        O  0.81675030  0.35871794  0.64194060    -0.86100
O415        O  0.56285985  0.20388428  0.64147844    -0.85710
O416        O  0.66188827  0.45776482  0.64194948    -0.85730
Mn417      Mn  0.87322796  0.35464496  0.57373339     1.47860
O418        O  0.96968505  0.04923179  0.69806389    -0.74210
C419        C  0.66353941  0.08335139  0.68313283     1.19530
O420        O  0.96985377  0.41988986  0.94634867    -0.72940
O421        O  0.97127875  0.42018046  0.69825207    -0.72550
Mn422      Mn  0.66550410  0.14743113  0.57072983     1.51060
O423        O  0.56456809  0.21011483  0.50862714    -0.84900
O424        O  0.93398770  0.34421414  0.63005874    -0.92430
O425        O  0.66612240  0.21047564  0.63538142    -0.87440
C426        C  0.94063699  0.35702225  0.68326199     1.17320
C427        C  0.88418303  0.13770113  0.88671355    -0.09180
C428        C  0.91121915  0.11151169  0.91739134    -0.10740
C429        C  0.77466042  0.13617028  0.88678881    -0.09180
C430        C  0.72145492  0.10911037  0.91752162    -0.10740
C431        C  0.90877770  0.29884061  0.91765268    -0.09180
C432        C  0.88267298  0.24568166  0.88687666    -0.10740
C433        C  0.65114999  0.27295850  0.76263570    -0.09180
C434        C  0.63348669  0.23779957  0.72035283    -0.10740
C435        C  0.64236639  0.36970782  0.76324953    -0.09180
C436        C  0.62480536  0.38744500  0.72104620    -0.10740
C437        C  0.78321157  0.39595072  0.72073935    -0.09180
C438        C  0.74797287  0.37850491  0.76298878    -0.10740
C439        C  0.90851666  0.10908805  0.72675410    -0.09180
C440        C  0.88250568  0.13622847  0.75752454    -0.10830
C441        C  0.77466095  0.13802822  0.75761810    -0.09180
C442        C  0.72145537  0.11202253  0.72688749    -0.10740
C443        C  0.88434579  0.24588318  0.75769602    -0.09180
C444        C  0.91147412  0.29911886  0.72701669    -0.10740
C445        C  0.64178257  0.27215195  0.88117977    -0.09180
C446        C  0.62402900  0.23683523  0.92337711    -0.10740
C447        C  0.65176670  0.37820982  0.88180940    -0.09180
C448        C  0.63428154  0.39588536  0.92408797    -0.10740
C449        C  0.74790910  0.36832455  0.88144908    -0.09180
C450        C  0.78315842  0.38587416  0.92369216    -0.10740
C451        C  0.68048667  0.83972601  0.35546884     0.01600
C452        C  0.84717919  0.67333979  0.28505340     0.01600
C453        C  0.68049271  0.84023333  0.28896985     0.01600
C454        C  0.84718001  0.67322453  0.35935194     0.01600
O455        O  0.56352402  0.85898313  0.00290564    -0.84090
C456        C  0.80464037  0.90378254  0.16263861     1.15950
O457        O  0.55446741  0.96617771  0.07227594    -1.31900
O458        O  0.80995997  0.85351772  0.00907322    -0.85570
O459        O  0.66668208  0.95582518  0.00907128    -0.86240
O460        O  0.60037391  0.54915140  0.44625603    -0.75060
O461        O  0.93143004  0.84397923  0.01462553    -0.97150
C462        C  0.94032434  0.58272599  0.46114666     1.26000
O463        O  0.55425199  0.58775860  0.07213730    -1.32040
Mn464      Mn  0.51377634  0.50669122  0.13761754     1.82050
O465        O  0.97111384  0.55036982  0.44615734    -0.74130
O466        O  0.81662647  0.95673648  0.00244920    -0.83530
C467        C  0.93718505  0.57985305  0.18300779     1.17080
C468        C  0.80462520  0.89957215  0.48177968     1.11800
O469        O  0.60037395  0.55086869  0.19815432    -0.75070
O470        O  0.93261504  0.96590797  0.07220592    -1.28770
O471        O  0.67633787  0.58945799  0.12991992    -0.94280
C472        C  0.61611038  0.71551003  0.48151714     1.10520
Mn473      Mn  0.87295764  0.51744013  0.07067489     1.48570
O474        O  0.66132731  0.70373322  0.00242420    -0.83480
Mn475      Mn  0.66576659  0.51811668  0.07367906     1.49560
O476        O  0.56521770  0.85448323  0.13584621    -0.87360
C477        C  0.93750271  0.85674961  0.46140306     1.23710
C478        C  0.61676986  0.90074016  0.16290284     1.15770
Mn479      Mn  0.51377689  0.50653862  0.00679468     1.80970
O480        O  0.93101546  0.58644443  0.12978350    -0.92510
Mn481      Mn  0.50287490  0.85495090  0.07101658     1.49260
C482        C  0.62066358  0.90406525  0.48208023     1.12290
Mn483      Mn  0.50234689  0.64709865  0.07339744     1.49930
C484        C  0.61999892  0.71605490  0.16234427     1.15200
O485        O  0.67633942  0.58680723  0.01448891    -0.98310
O486        O  0.80983763  0.95513453  0.13536440    -0.87980
C487        C  0.66354080  0.57998654  0.46127756     1.26480
O488        O  0.93357523  0.58878006  0.01434875    -0.98700
O489        O  0.81675029  0.85871789  0.14194058    -0.86100
O490        O  0.56285980  0.70388428  0.14147842    -0.85710
O491        O  0.66188832  0.95776486  0.14194945    -0.85730
Mn492      Mn  0.87322798  0.85464495  0.07373338     1.47860
O493        O  0.96968503  0.54923178  0.19806388    -0.74210
C494        C  0.66353939  0.58335141  0.18313283     1.19530
O495        O  0.96985376  0.91988986  0.44634867    -0.72940
O496        O  0.97127876  0.92018046  0.19825207    -0.72550
Mn497      Mn  0.66550408  0.64743114  0.07072983     1.51060
O498        O  0.56456805  0.71011482  0.00862713    -0.84900
O499        O  0.93398771  0.84421414  0.13005874    -0.92430
O500        O  0.66612235  0.71047563  0.13538143    -0.87440
C501        C  0.94063700  0.85702225  0.18326199     1.17320
C502        C  0.88418303  0.63770114  0.38671355    -0.09180
C503        C  0.91121916  0.61151170  0.41739134    -0.10740
C504        C  0.77466042  0.63617027  0.38678882    -0.09180
C505        C  0.72145493  0.60911036  0.41752163    -0.10740
C506        C  0.90877770  0.79884061  0.41765268    -0.09180
C507        C  0.88267298  0.74568166  0.38687667    -0.10740
C508        C  0.65114992  0.77295850  0.26263570    -0.09180
C509        C  0.63348661  0.73779957  0.22035283    -0.10740
C510        C  0.64236647  0.86970790  0.26324952    -0.09180
C511        C  0.62480545  0.88744509  0.22104619    -0.10740
C512        C  0.78321158  0.89595065  0.22073935    -0.09180
C513        C  0.74797289  0.87850484  0.26298879    -0.10740
C514        C  0.90851663  0.60908804  0.22675409    -0.09180
C515        C  0.88250566  0.63622846  0.25752453    -0.10830
C516        C  0.77466094  0.63802823  0.25761810    -0.09180
C517        C  0.72145536  0.61202254  0.22688749    -0.10740
C518        C  0.88434579  0.74588318  0.25769602    -0.09180
C519        C  0.91147412  0.79911886  0.22701669    -0.10740
C520        C  0.64178263  0.77215194  0.38117977    -0.09180
C521        C  0.62402907  0.73683522  0.42337711    -0.10740
C522        C  0.65176663  0.87820975  0.38180940    -0.09180
C523        C  0.63428147  0.89588529  0.42408797    -0.10740
C524        C  0.74790910  0.86832462  0.38144909    -0.09180
C525        C  0.78315842  0.88587424  0.42369216    -0.10740
C526        C  0.68048667  0.83972601  0.85546884     0.01600
C527        C  0.84717919  0.67333979  0.78505340     0.01600
C528        C  0.68049271  0.84023333  0.78896985     0.01600
C529        C  0.84718001  0.67322453  0.85935194     0.01600
O530        O  0.56352397  0.85898309  0.50290565    -0.84090
C531        C  0.80464037  0.90378258  0.66263862     1.15950
O532        O  0.55446740  0.96617770  0.57227594    -1.31900
O533        O  0.80995997  0.85351775  0.50907322    -0.85570
O534        O  0.66668204  0.95582514  0.50907128    -0.86240
O535        O  0.60037391  0.54915141  0.94625603    -0.75060
O536        O  0.93143002  0.84397923  0.51462553    -0.97150
C537        C  0.94032433  0.58272598  0.96114666     1.26000
O538        O  0.55425200  0.58775860  0.57213730    -1.32040
Mn539      Mn  0.51377634  0.50669122  0.63761754     1.82050
O540        O  0.97111383  0.55036981  0.94615734    -0.74130
O541        O  0.81662648  0.95673652  0.50244921    -0.83530
C542        C  0.93718507  0.57985307  0.68300779     1.17080
C543        C  0.80462520  0.89957210  0.98177967     1.11800
O544        O  0.60037395  0.55086868  0.69815432    -0.75070
O545        O  0.93261504  0.96590798  0.57220592    -1.28770
O546        O  0.67633787  0.58945797  0.62991992    -0.94280
C547        C  0.61611034  0.71551003  0.98151714     1.10520
Mn548      Mn  0.87295765  0.51744015  0.57067489     1.48570
O549        O  0.66132735  0.70373322  0.50242420    -0.83480
Mn550      Mn  0.66576658  0.51811666  0.57367906     1.49560
O551        O  0.56521766  0.85448319  0.63584621    -0.87360
C552        C  0.93750273  0.85674961  0.96140305     1.23710
C553        C  0.61676982  0.90074012  0.66290284     1.15770
Mn554      Mn  0.51377689  0.50653862  0.50679468     1.80970
O555        O  0.93101548  0.58644445  0.62978350    -0.92510
Mn556      Mn  0.50287487  0.85495089  0.57101659     1.49260
C557        C  0.62066362  0.90406529  0.98208023     1.12290
Mn558      Mn  0.50234692  0.64709866  0.57339744     1.49930
C559        C  0.61999896  0.71605491  0.66234427     1.15200
O560        O  0.67633942  0.58680721  0.51448891    -0.98310
O561        O  0.80983764  0.95513457  0.63536440    -0.87980
C562        C  0.66354080  0.57998656  0.96127756     1.26480
O563        O  0.93357525  0.58878008  0.51434875    -0.98700
O564        O  0.81675028  0.85871793  0.64194058    -0.86100
O565        O  0.56285984  0.70388428  0.64147843    -0.85710
O566        O  0.66188829  0.95776482  0.64194946    -0.85730
Mn567      Mn  0.87322796  0.85464497  0.57373338     1.47860
O568        O  0.96968503  0.54923179  0.69806388    -0.74210
C569        C  0.66353940  0.58335139  0.68313283     1.19530
O570        O  0.96985377  0.91988986  0.94634867    -0.72940
O571        O  0.97127875  0.92018047  0.69825208    -0.72550
Mn572      Mn  0.66550410  0.64743112  0.57072984     1.51060
O573        O  0.56456809  0.71011482  0.50862713    -0.84900
O574        O  0.93398769  0.84421414  0.63005875    -0.92430
O575        O  0.66612239  0.71047563  0.63538142    -0.87440
C576        C  0.94063698  0.85702225  0.68326199     1.17320
C577        C  0.88418303  0.63770113  0.88671354    -0.09180
C578        C  0.91121915  0.61151169  0.91739134    -0.10740
C579        C  0.77466042  0.63617028  0.88678882    -0.09180
C580        C  0.72145493  0.60911037  0.91752163    -0.10740
C581        C  0.90877771  0.79884061  0.91765268    -0.09180
C582        C  0.88267298  0.74568166  0.88687666    -0.10740
C583        C  0.65114997  0.77295851  0.76263570    -0.09180
C584        C  0.63348666  0.73779957  0.72035283    -0.10740
C585        C  0.64236643  0.86970785  0.76324953    -0.09180
C586        C  0.62480540  0.88744504  0.72104619    -0.10740
C587        C  0.78321157  0.89595070  0.72073935    -0.09180
C588        C  0.74797288  0.87850488  0.76298879    -0.10740
C589        C  0.90851665  0.60908805  0.72675409    -0.09180
C590        C  0.88250567  0.63622847  0.75752453    -0.10830
C591        C  0.77466094  0.63802822  0.75761810    -0.09180
C592        C  0.72145536  0.61202253  0.72688749    -0.10740
C593        C  0.88434578  0.74588318  0.75769602    -0.09180
C594        C  0.91147411  0.79911886  0.72701669    -0.10740
C595        C  0.64178259  0.77215194  0.88117977    -0.09180
C596        C  0.62402902  0.73683522  0.92337711    -0.10740
C597        C  0.65176668  0.87820980  0.88180940    -0.09180
C598        C  0.63428152  0.89588534  0.92408797    -0.10740
C599        C  0.74790910  0.86832457  0.88144908    -0.09180
C600        C  0.78315842  0.88587419  0.92369216    -0.10740
loop_ 
_geom_bond_atom_site_label_1 
_geom_bond_atom_site_label_2 
_geom_bond_distance 
_geom_bond_site_symmetry_2 
_ccdc_geom_bond_type 
C1            C3   1.508       .  S
C1           C70   1.435       .  S
C1           C72   1.435       .  S
C1           C74   1.435       .  S
C2            C4   1.685       .  S
C2           C65   1.534       .  S
C2           C66   1.534       .  S
C2           C68   1.534       .  S
C3           C58   1.435       .  S
C3           C60   1.435       .  S
C3           C63   1.435       .  S
C4           C52   1.534       .  S
C4           C54   1.534       .  S
C4           C57   1.534       .  S
O5          Mn31   2.026       .  S
O5          C107   1.257   1_554  A
C6           O39   1.257       .  A
C6           O36   1.256       .  A
C6           C62   1.383       .  S
O7          Mn31   2.153       .  S
O7         Mn164   2.160       .  S
O7         Mn175   2.154       .  S
O7         Mn179   2.160       .  S
O8          Mn42   2.028       .  S
O8           C93   1.256   1_554  A
O9         Mn175   2.028       .  S
O9          C107   1.256   1_554  A
O10        Mn104   2.165       .  S
O10          C37   1.268       .  A
O11         Mn42   1.963       .  S
O11        Mn331   1.962       .  S
O11         C102   1.232   1_554  S
C12          O15   1.268       .  A
C12          C53   1.496       .  S
C12         O113   1.232       .  S
O13         Mn33   2.154       .  S
O13         Mn14   2.159       .  S
O13         Mn47   2.153       .  S
O13         Mn29   2.159       .  S
Mn14         O19   2.165       .  S
Mn14        O343   2.165   1_455  S
Mn14        O496   2.166   1_445  S
Mn14        O157   2.160   1_545  S
Mn14        O470   2.159   1_445  S
O15        Mn404   2.166       .  S
O16        Mn173   2.027       .  S
O16          C93   1.257   1_554  A
C17          O43   1.268       .  A
C17          C64   1.496       .  S
C17          O30   1.232       .  S
C18          O83   1.256       .  A
C18          O91   1.257       .  A
C18          C75   1.383       .  S
O19          C44   1.268       .  A
O20         Mn42   2.154       .  S
O20        Mn464   2.159       .  S
O20        Mn173   2.153       .  S
O20        Mn479   2.159       .  S
O21         Mn25   1.961       .  S
O21         Mn47   1.962       .  S
O21          C44   1.232       .  S
C22         O123   1.256       .  A
C22          O99   1.257       .  A
C22          C71   1.383       .  S
Mn23        O166   2.027   1_545  S
Mn23        O186   2.028   1_545  S
Mn23        O170   2.153   1_545  S
Mn23         O38   1.961       .  S
Mn23         O30   1.963       .  S
O24         Mn47   2.027       .  S
O24          C97   1.257   1_554  A
Mn25        O159   2.028   1_545  S
Mn25        O191   2.026   1_545  S
Mn25        O157   2.154   1_545  S
Mn25         O35   1.962       .  S
O26         Mn31   2.028       .  S
O26          C28   1.257       .  A
C27          O45   1.268       .  A
C27          C56   1.496       .  S
C27          O86   1.232       .  S
C28          O41   1.257       .  A
C28          C61   1.383       .  S
Mn29         O85   2.165   1_554  S
Mn29        O390   2.166   1_454  S
Mn29        O570   2.165   1_444  S
Mn29        O157   2.160   1_545  S
Mn29        O470   2.159   1_445  S
O30        Mn333   1.962       .  S
Mn31        O311   1.962   1_455  S
Mn31        O349   1.962   1_455  S
C32          O80   1.257       .  A
C32          O84   1.256       .  A
C32          C73   1.382       .  S
Mn33         O40   2.026       .  S
Mn33         O48   2.028       .  S
Mn33        O330   1.962   1_455  S
Mn33        O338   1.961   1_455  S
C34          O40   1.257       .  A
C34          O50   1.257       .  A
C34          C59   1.382       .  S
O35         Mn47   1.961       .  S
O35         C112   1.232   1_554  S
O36        Mn173   2.028       .  S
C37          C55   1.496       .  S
C37         O110   1.232       .  S
O38        Mn333   1.961       .  S
O38          C87   1.232   1_554  S
O39         Mn42   2.026       .  S
O41        Mn175   2.026       .  S
Mn42         O49   1.960       .  S
O43        Mn314   2.165       .  S
C44          C67   1.496       .  S
O45        Mn554   2.165       .  S
O46        Mn464   2.166       .  S
O46          C51   1.268       .  A
Mn47         O50   2.028       .  S
O48          C97   1.256   1_554  A
O49        Mn331   1.962       .  S
O49          C51   1.232       .  S
C51          C69   1.496       .  S
C52          C53   1.243       .  T
C54          C55   1.243       .  T
C56          C57   1.243       .  T
C58          C59   1.176       .  T
C60          C61   1.176       .  T
C62          C63   1.176       .  T
C64          C65   1.243       .  T
C66          C67   1.243       .  T
C68          C69   1.243       .  T
C70          C71   1.176       .  T
C72          C73   1.176       .  T
C74          C75   1.176       .  T
C76          C78   1.508       .  S
C76         C145   1.435       .  S
C76         C147   1.435       .  S
C76         C149   1.435       .  S
C77          C79   1.685       .  S
C77         C140   1.534       .  S
C77         C141   1.534       .  S
C77         C143   1.534       .  S
C78         C133   1.435       .  S
C78         C135   1.435       .  S
C78         C138   1.435       .  S
C79         C127   1.534       .  S
C79         C129   1.534       .  S
C79         C132   1.534       .  S
O80        Mn106   2.026       .  S
C81         O114   1.257       .  A
C81         O111   1.256       .  A
C81         C137   1.383       .  S
O82        Mn239   2.160       .  S
O82        Mn250   2.154       .  S
O82        Mn254   2.160       .  S
O82        Mn106   2.153       .  S
O83        Mn117   2.028       .  S
O84        Mn250   2.028       .  S
O85         C112   1.268       .  A
O86        Mn117   1.963       .  S
O86        Mn406   1.962       .  S
C87          O90   1.268       .  A
C87         C128   1.496       .  S
O88        Mn108   2.154       .  S
O88         Mn89   2.159       .  S
O88        Mn122   2.153       .  S
O88        Mn104   2.159       .  S
Mn89        O418   2.165   1_455  S
Mn89         O94   2.165       .  S
Mn89        O571   2.166   1_445  S
Mn89        O232   2.160   1_545  S
Mn89        O545   2.159   1_445  S
O90        Mn329   2.166   1_556  S
O91        Mn248   2.027       .  S
C92         O118   1.268       .  A
C92         C139   1.496       .  S
C92         O105   1.232       .  S
C93         C150   1.383       .  S
O94         C119   1.268       .  A
O95        Mn539   2.159       .  S
O95        Mn248   2.153       .  S
O95        Mn117   2.154       .  S
O95        Mn554   2.159       .  S
O96        Mn100   1.961       .  S
O96        Mn122   1.962       .  S
O96         C119   1.232       .  S
C97         C146   1.383       .  S
Mn98        O241   2.027   1_545  S
Mn98        O261   2.028   1_545  S
Mn98        O245   2.153   1_545  S
Mn98        O113   1.961       .  S
Mn98        O105   1.963       .  S
O99        Mn122   2.027       .  S
Mn100       O234   2.028   1_545  S
Mn100       O266   2.026   1_545  S
Mn100       O232   2.154   1_545  S
Mn100       O110   1.962       .  S
O101       Mn106   2.028       .  S
O101        C103   1.257       .  A
C102        O120   1.268       .  A
C102        C131   1.496       .  S
C103        O116   1.257       .  A
C103        C136   1.383       .  S
Mn104       O315   2.166   1_455  S
Mn104       O495   2.165   1_445  S
Mn104       O232   2.160   1_545  S
Mn104       O545   2.159   1_445  S
O105       Mn408   1.962       .  S
Mn106       O386   1.962   1_455  S
Mn106       O424   1.962   1_455  S
C107        C148   1.382       .  S
Mn108       O115   2.026       .  S
Mn108       O123   2.028       .  S
Mn108       O405   1.962   1_455  S
Mn108       O413   1.961   1_455  S
C109        O115   1.257       .  A
C109        O125   1.257       .  A
C109        C134   1.382       .  S
O110       Mn122   1.961       .  S
O111       Mn248   2.028       .  S
C112        C130   1.496       .  S
O113       Mn408   1.961       .  S
O114       Mn117   2.026       .  S
O116       Mn250   2.026       .  S
Mn117       O124   1.960       .  S
O118       Mn389   2.165       .  S
C119        C142   1.496       .  S
O120       Mn479   2.165   1_556  S
O121       Mn539   2.166       .  S
O121        C126   1.268       .  A
Mn122       O125   2.028       .  S
O124       Mn406   1.962       .  S
O124        C126   1.232       .  S
C126        C144   1.496       .  S
C127        C128   1.243       .  T
C129        C130   1.243       .  T
C131        C132   1.243       .  T
C133        C134   1.176       .  T
C135        C136   1.176       .  T
C137        C138   1.176       .  T
C139        C140   1.243       .  T
C141        C142   1.243       .  T
C143        C144   1.243       .  T
C145        C146   1.176       .  T
C147        C148   1.176       .  T
C149        C150   1.176       .  T
C151        C153   1.508       .  S
C151        C220   1.435       .  S
C151        C222   1.435       .  S
C151        C224   1.435       .  S
C152        C154   1.685       .  S
C152        C215   1.534       .  S
C152        C216   1.534       .  S
C152        C218   1.534       .  S
C153        C208   1.435       .  S
C153        C210   1.435       .  S
C153        C213   1.435       .  S
C154        C202   1.534       .  S
C154        C204   1.534       .  S
C154        C207   1.534       .  S
O155       Mn181   2.026       .  S
O155        C257   1.257   1_554  A
C156        O189   1.257       .  A
C156        O186   1.256       .  A
C156        C212   1.383       .  S
O157       Mn181   2.153       .  S
O158       Mn192   2.028       .  S
O158        C243   1.256   1_554  A
O159        C257   1.256   1_554  A
O160       Mn254   2.165       .  S
O160        C187   1.268       .  A
O161       Mn192   1.963       .  S
O161       Mn481   1.962       .  S
O161        C252   1.232   1_554  S
C162        O165   1.268       .  A
C162        C203   1.496       .  S
C162        O263   1.232       .  S
O163       Mn183   2.154       .  S
O163       Mn164   2.159       .  S
O163       Mn197   2.153       .  S
O163       Mn179   2.159       .  S
Mn164       O493   2.165   1_455  S
Mn164       O169   2.165       .  S
Mn164       O346   2.166   1_455  S
Mn164       O320   2.159   1_455  S
O165       Mn554   2.166       .  S
O166        C243   1.257   1_554  A
C167        O193   1.268       .  A
C167        C214   1.496       .  S
C167        O180   1.232       .  S
C168        O233   1.256       .  A
C168        O241   1.257       .  A
C168        C225   1.383       .  S
O169        C194   1.268       .  A
O170       Mn314   2.159   1_565  S
O170       Mn192   2.154       .  S
O170       Mn329   2.159   1_565  S
O171       Mn175   1.961       .  S
O171       Mn197   1.962       .  S
O171        C194   1.232       .  S
C172        O273   1.256       .  A
C172        O249   1.257       .  A
C172        C221   1.383       .  S
Mn173       O188   1.961       .  S
Mn173       O180   1.963       .  S
O174       Mn197   2.027       .  S
O174        C247   1.257   1_554  A
Mn175       O185   1.962       .  S
O176       Mn181   2.028       .  S
O176        C178   1.257       .  A
C177        O195   1.268       .  A
C177        C206   1.496       .  S
C177        O236   1.232       .  S
C178        O191   1.257       .  A
C178        C211   1.383       .  S
Mn179       O235   2.165   1_554  S
Mn179       O540   2.166   1_454  S
Mn179       O420   2.165   1_454  S
Mn179       O320   2.159   1_455  S
O180       Mn483   1.962       .  S
Mn181       O461   1.962   1_455  S
Mn181       O499   1.962   1_455  S
C182        O230   1.257       .  A
C182        O234   1.256       .  A
C182        C223   1.382       .  S
Mn183       O190   2.026       .  S
Mn183       O198   2.028       .  S
Mn183       O480   1.962   1_455  S
Mn183       O488   1.961   1_455  S
C184        O190   1.257       .  A
C184        O200   1.257       .  A
C184        C209   1.382       .  S
O185       Mn197   1.961       .  S
O185        C262   1.232   1_554  S
C187        C205   1.496       .  S
C187        O260   1.232       .  S
O188       Mn483   1.961       .  S
O188        C237   1.232   1_554  S
O189       Mn192   2.026       .  S
Mn192       O199   1.960       .  S
O193       Mn464   2.165       .  S
C194        C217   1.496       .  S
O195       Mn404   2.165   1_565  S
O196       Mn314   2.166   1_565  S
O196        C201   1.268       .  A
Mn197       O200   2.028       .  S
O198        C247   1.256   1_554  A
O199       Mn481   1.962       .  S
O199        C201   1.232       .  S
C201        C219   1.496       .  S
C202        C203   1.243       .  T
C204        C205   1.243       .  T
C206        C207   1.243       .  T
C208        C209   1.176       .  T
C210        C211   1.176       .  T
C212        C213   1.176       .  T
C214        C215   1.243       .  T
C216        C217   1.243       .  T
C218        C219   1.243       .  T
C220        C221   1.176       .  T
C222        C223   1.176       .  T
C224        C225   1.176       .  T
C226        C228   1.508       .  S
C226        C295   1.435       .  S
C226        C297   1.435       .  S
C226        C299   1.435       .  S
C227        C229   1.685       .  S
C227        C290   1.534       .  S
C227        C291   1.534       .  S
C227        C293   1.534       .  S
C228        C283   1.435       .  S
C228        C285   1.435       .  S
C228        C288   1.435       .  S
C229        C277   1.534       .  S
C229        C279   1.534       .  S
C229        C282   1.534       .  S
O230       Mn256   2.026       .  S
C231        O264   1.257       .  A
C231        O261   1.256       .  A
C231        C287   1.383       .  S
O232       Mn256   2.153       .  S
O233       Mn267   2.028       .  S
O235        C262   1.268       .  A
O236       Mn267   1.963       .  S
O236       Mn556   1.962       .  S
C237        O240   1.268       .  A
C237        C278   1.496       .  S
O238       Mn258   2.154       .  S
O238       Mn239   2.159       .  S
O238       Mn272   2.153       .  S
O238       Mn254   2.159       .  S
Mn239       O568   2.165   1_455  S
Mn239       O244   2.165       .  S
Mn239       O421   2.166   1_455  S
Mn239       O395   2.159   1_455  S
O240       Mn479   2.166   1_556  S
C242        O268   1.268       .  A
C242        C289   1.496       .  S
C242        O255   1.232       .  S
C243        C300   1.383       .  S
O244        C269   1.268       .  A
O245       Mn389   2.159   1_565  S
O245       Mn267   2.154       .  S
O245       Mn404   2.159   1_565  S
O246       Mn250   1.961       .  S
O246       Mn272   1.962       .  S
O246        C269   1.232       .  S
C247        C296   1.383       .  S
Mn248       O263   1.961       .  S
Mn248       O255   1.963       .  S
O249       Mn272   2.027       .  S
Mn250       O260   1.962       .  S
O251       Mn256   2.028       .  S
O251        C253   1.257       .  A
C252        O270   1.268       .  A
C252        C281   1.496       .  S
C253        O266   1.257       .  A
C253        C286   1.383       .  S
Mn254       O465   2.166   1_455  S
Mn254       O345   2.165   1_455  S
Mn254       O395   2.159   1_455  S
O255       Mn558   1.962       .  S
Mn256       O536   1.962   1_455  S
Mn256       O574   1.962   1_455  S
C257        C298   1.382       .  S
Mn258       O265   2.026       .  S
Mn258       O273   2.028       .  S
Mn258       O555   1.962   1_455  S
Mn258       O563   1.961   1_455  S
C259        O265   1.257       .  A
C259        O275   1.257       .  A
C259        C284   1.382       .  S
O260       Mn272   1.961       .  S
C262        C280   1.496       .  S
O263       Mn558   1.961       .  S
O264       Mn267   2.026       .  S
Mn267       O274   1.960       .  S
O268       Mn539   2.165       .  S
C269        C292   1.496       .  S
O270       Mn329   2.165   1_566  S
O271       Mn389   2.166   1_565  S
O271        C276   1.268       .  A
Mn272       O275   2.028       .  S
O274       Mn556   1.962       .  S
O274        C276   1.232       .  S
C276        C294   1.496       .  S
C277        C278   1.243       .  T
C279        C280   1.243       .  T
C281        C282   1.243       .  T
C283        C284   1.176       .  T
C285        C286   1.176       .  T
C287        C288   1.176       .  T
C289        C290   1.243       .  T
C291        C292   1.243       .  T
C293        C294   1.243       .  T
C295        C296   1.176       .  T
C297        C298   1.176       .  T
C299        C300   1.176       .  T
C301        C303   1.508       .  S
C301        C370   1.435       .  S
C301        C372   1.435       .  S
C301        C374   1.435       .  S
C302        C304   1.685       .  S
C302        C365   1.534       .  S
C302        C366   1.534       .  S
C302        C368   1.534       .  S
C303        C358   1.435       .  S
C303        C360   1.435       .  S
C303        C363   1.435       .  S
C304        C352   1.534       .  S
C304        C354   1.534       .  S
C304        C357   1.534       .  S
O305       Mn331   2.026       .  S
O305        C407   1.257   1_554  A
C306        O339   1.257       .  A
C306        O336   1.256       .  A
C306        C362   1.383       .  S
O307       Mn464   2.160       .  S
O307       Mn475   2.154       .  S
O307       Mn479   2.160       .  S
O307       Mn331   2.153       .  S
O308       Mn342   2.028       .  S
O308        C393   1.256   1_554  A
O309       Mn475   2.028       .  S
O309        C407   1.256   1_554  A
O310       Mn404   2.165       .  S
O310        C337   1.268       .  A
O311       Mn342   1.963       .  S
O311        C402   1.232   1_554  S
C312        O315   1.268       .  A
C312        C353   1.496       .  S
C312        O413   1.232       .  S
O313       Mn333   2.154       .  S
O313       Mn314   2.159       .  S
O313       Mn347   2.153       .  S
O313       Mn329   2.159       .  S
Mn314       O319   2.165       .  S
Mn314       O457   2.160   1_545  S
O316       Mn473   2.027       .  S
O316        C393   1.257   1_554  A
C317        O343   1.268       .  A
C317        C364   1.496       .  S
C317        O330   1.232       .  S
C318        O383   1.256       .  A
C318        O391   1.257       .  A
C318        C375   1.383       .  S
O319        C344   1.268       .  A
O320       Mn473   2.153       .  S
O320       Mn342   2.154       .  S
O321       Mn325   1.961       .  S
O321       Mn347   1.962       .  S
O321        C344   1.232       .  S
C322        O423   1.256       .  A
C322        O399   1.257       .  A
C322        C371   1.383       .  S
Mn323       O466   2.027   1_545  S
Mn323       O486   2.028   1_545  S
Mn323       O470   2.153   1_545  S
Mn323       O338   1.961       .  S
Mn323       O330   1.963       .  S
O324       Mn347   2.027       .  S
O324        C397   1.257   1_554  A
Mn325       O459   2.028   1_545  S
Mn325       O491   2.026   1_545  S
Mn325       O457   2.154   1_545  S
Mn325       O335   1.962       .  S
O326       Mn331   2.028       .  S
O326        C328   1.257       .  A
C327        O345   1.268       .  A
C327        C356   1.496       .  S
C327        O386   1.232       .  S
C328        O341   1.257       .  A
C328        C361   1.383       .  S
Mn329       O385   2.165   1_554  S
Mn329       O457   2.160   1_545  S
C332        O380   1.257       .  A
C332        O384   1.256       .  A
C332        C373   1.382       .  S
Mn333       O340   2.026       .  S
Mn333       O348   2.028       .  S
C334        O340   1.257       .  A
C334        O350   1.257       .  A
C334        C359   1.382       .  S
O335       Mn347   1.961       .  S
O335        C412   1.232   1_554  S
O336       Mn473   2.028       .  S
C337        C355   1.496       .  S
C337        O410   1.232       .  S
O338        C387   1.232   1_554  S
O339       Mn342   2.026       .  S
O341       Mn475   2.026       .  S
Mn342       O349   1.960       .  S
C344        C367   1.496       .  S
O346        C351   1.268       .  A
Mn347       O350   2.028       .  S
O348        C397   1.256   1_554  A
O349        C351   1.232       .  S
C351        C369   1.496       .  S
C352        C353   1.243       .  T
C354        C355   1.243       .  T
C356        C357   1.243       .  T
C358        C359   1.176       .  T
C360        C361   1.176       .  T
C362        C363   1.176       .  T
C364        C365   1.243       .  T
C366        C367   1.243       .  T
C368        C369   1.243       .  T
C370        C371   1.176       .  T
C372        C373   1.176       .  T
C374        C375   1.176       .  T
C376        C378   1.508       .  S
C376        C445   1.435       .  S
C376        C447   1.435       .  S
C376        C449   1.435       .  S
C377        C379   1.685       .  S
C377        C440   1.534       .  S
C377        C441   1.534       .  S
C377        C443   1.534       .  S
C378        C433   1.435       .  S
C378        C435   1.435       .  S
C378        C438   1.435       .  S
C379        C427   1.534       .  S
C379        C429   1.534       .  S
C379        C432   1.534       .  S
O380       Mn406   2.026       .  S
C381        O414   1.257       .  A
C381        O411   1.256       .  A
C381        C437   1.383       .  S
O382       Mn539   2.160       .  S
O382       Mn550   2.154       .  S
O382       Mn554   2.160       .  S
O382       Mn406   2.153       .  S
O383       Mn417   2.028       .  S
O384       Mn550   2.028       .  S
O385        C412   1.268       .  A
O386       Mn417   1.963       .  S
C387        O390   1.268       .  A
C387        C428   1.496       .  S
O388       Mn408   2.154       .  S
O388       Mn389   2.159       .  S
O388       Mn422   2.153       .  S
O388       Mn404   2.159       .  S
Mn389       O394   2.165       .  S
Mn389       O532   2.160   1_545  S
O391       Mn548   2.027       .  S
C392        O418   1.268       .  A
C392        C439   1.496       .  S
C392        O405   1.232       .  S
C393        C450   1.383       .  S
O394        C419   1.268       .  A
O395       Mn548   2.153       .  S
O395       Mn417   2.154       .  S
O396       Mn400   1.961       .  S
O396       Mn422   1.962       .  S
O396        C419   1.232       .  S
C397        C446   1.383       .  S
Mn398       O541   2.027   1_545  S
Mn398       O561   2.028   1_545  S
Mn398       O545   2.153   1_545  S
Mn398       O413   1.961       .  S
Mn398       O405   1.963       .  S
O399       Mn422   2.027       .  S
Mn400       O534   2.028   1_545  S
Mn400       O566   2.026   1_545  S
Mn400       O532   2.154   1_545  S
Mn400       O410   1.962       .  S
O401       Mn406   2.028       .  S
O401        C403   1.257       .  A
C402        O420   1.268       .  A
C402        C431   1.496       .  S
C403        O416   1.257       .  A
C403        C436   1.383       .  S
Mn404       O532   2.160   1_545  S
C407        C448   1.382       .  S
Mn408       O415   2.026       .  S
Mn408       O423   2.028       .  S
C409        O415   1.257       .  A
C409        O425   1.257       .  A
C409        C434   1.382       .  S
O410       Mn422   1.961       .  S
O411       Mn548   2.028       .  S
C412        C430   1.496       .  S
O414       Mn417   2.026       .  S
O416       Mn550   2.026       .  S
Mn417       O424   1.960       .  S
C419        C442   1.496       .  S
O421        C426   1.268       .  A
Mn422       O425   2.028       .  S
O424        C426   1.232       .  S
C426        C444   1.496       .  S
C427        C428   1.243       .  T
C429        C430   1.243       .  T
C431        C432   1.243       .  T
C433        C434   1.176       .  T
C435        C436   1.176       .  T
C437        C438   1.176       .  T
C439        C440   1.243       .  T
C441        C442   1.243       .  T
C443        C444   1.243       .  T
C445        C446   1.176       .  T
C447        C448   1.176       .  T
C449        C450   1.176       .  T
C451        C453   1.508       .  S
C451        C520   1.435       .  S
C451        C522   1.435       .  S
C451        C524   1.435       .  S
C452        C454   1.685       .  S
C452        C515   1.534       .  S
C452        C516   1.534       .  S
C452        C518   1.534       .  S
C453        C508   1.435       .  S
C453        C510   1.435       .  S
C453        C513   1.435       .  S
C454        C502   1.534       .  S
C454        C504   1.534       .  S
C454        C507   1.534       .  S
O455       Mn481   2.026       .  S
O455        C557   1.257   1_554  A
C456        O489   1.257       .  A
C456        O486   1.256       .  A
C456        C512   1.383       .  S
O457       Mn481   2.153       .  S
O458       Mn492   2.028       .  S
O458        C543   1.256   1_554  A
O459        C557   1.256   1_554  A
O460       Mn554   2.165       .  S
O460        C487   1.268       .  A
O461       Mn492   1.963       .  S
O461        C552   1.232   1_554  S
C462        O465   1.268       .  A
C462        C503   1.496       .  S
C462        O563   1.232       .  S
O463       Mn483   2.154       .  S
O463       Mn464   2.159       .  S
O463       Mn497   2.153       .  S
O463       Mn479   2.159       .  S
Mn464       O469   2.165       .  S
O466        C543   1.257   1_554  A
C467        O493   1.268       .  A
C467        C514   1.496       .  S
C467        O480   1.232       .  S
C468        O533   1.256       .  A
C468        O541   1.257       .  A
C468        C525   1.383       .  S
O469        C494   1.268       .  A
O470       Mn492   2.154       .  S
O471       Mn475   1.961       .  S
O471       Mn497   1.962       .  S
O471        C494   1.232       .  S
C472        O573   1.256       .  A
C472        O549   1.257       .  A
C472        C521   1.383       .  S
Mn473       O488   1.961       .  S
Mn473       O480   1.963       .  S
O474       Mn497   2.027       .  S
O474        C547   1.257   1_554  A
Mn475       O485   1.962       .  S
O476       Mn481   2.028       .  S
O476        C478   1.257       .  A
C477        O495   1.268       .  A
C477        C506   1.496       .  S
C477        O536   1.232       .  S
C478        O491   1.257       .  A
C478        C511   1.383       .  S
Mn479       O535   2.165   1_554  S
C482        O530   1.257       .  A
C482        O534   1.256       .  A
C482        C523   1.382       .  S
Mn483       O490   2.026       .  S
Mn483       O498   2.028       .  S
C484        O490   1.257       .  A
C484        O500   1.257       .  A
C484        C509   1.382       .  S
O485       Mn497   1.961       .  S
O485        C562   1.232   1_554  S
C487        C505   1.496       .  S
C487        O560   1.232       .  S
O488        C537   1.232   1_554  S
O489       Mn492   2.026       .  S
Mn492       O499   1.960       .  S
C494        C517   1.496       .  S
O496        C501   1.268       .  A
Mn497       O500   2.028       .  S
O498        C547   1.256   1_554  A
O499        C501   1.232       .  S
C501        C519   1.496       .  S
C502        C503   1.243       .  T
C504        C505   1.243       .  T
C506        C507   1.243       .  T
C508        C509   1.176       .  T
C510        C511   1.176       .  T
C512        C513   1.176       .  T
C514        C515   1.243       .  T
C516        C517   1.243       .  T
C518        C519   1.243       .  T
C520        C521   1.176       .  T
C522        C523   1.176       .  T
C524        C525   1.176       .  T
C526        C528   1.508       .  S
C526        C595   1.435       .  S
C526        C597   1.435       .  S
C526        C599   1.435       .  S
C527        C529   1.685       .  S
C527        C590   1.534       .  S
C527        C591   1.534       .  S
C527        C593   1.534       .  S
C528        C583   1.435       .  S
C528        C585   1.435       .  S
C528        C588   1.435       .  S
C529        C577   1.534       .  S
C529        C579   1.534       .  S
C529        C582   1.534       .  S
O530       Mn556   2.026       .  S
C531        O564   1.257       .  A
C531        O561   1.256       .  A
C531        C587   1.383       .  S
O532       Mn556   2.153       .  S
O533       Mn567   2.028       .  S
O535        C562   1.268       .  A
O536       Mn567   1.963       .  S
C537        O540   1.268       .  A
C537        C578   1.496       .  S
O538       Mn558   2.154       .  S
O538       Mn539   2.159       .  S
O538       Mn572   2.153       .  S
O538       Mn554   2.159       .  S
Mn539       O544   2.165       .  S
C542        O568   1.268       .  A
C542        C589   1.496       .  S
C542        O555   1.232       .  S
C543        C600   1.383       .  S
O544        C569   1.268       .  A
O545       Mn567   2.154       .  S
O546       Mn550   1.961       .  S
O546       Mn572   1.962       .  S
O546        C569   1.232       .  S
C547        C596   1.383       .  S
Mn548       O563   1.961       .  S
Mn548       O555   1.963       .  S
O549       Mn572   2.027       .  S
Mn550       O560   1.962       .  S
O551       Mn556   2.028       .  S
O551        C553   1.257       .  A
C552        O570   1.268       .  A
C552        C581   1.496       .  S
C553        O566   1.257       .  A
C553        C586   1.383       .  S
C557        C598   1.382       .  S
Mn558       O565   2.026       .  S
Mn558       O573   2.028       .  S
C559        O565   1.257       .  A
C559        O575   1.257       .  A
C559        C584   1.382       .  S
O560       Mn572   1.961       .  S
C562        C580   1.496       .  S
O564       Mn567   2.026       .  S
Mn567       O574   1.960       .  S
C569        C592   1.496       .  S
O571        C576   1.268       .  A
Mn572       O575   2.028       .  S
O574        C576   1.232       .  S
C576        C594   1.496       .  S
C577        C578   1.243       .  T
C579        C580   1.243       .  T
C581        C582   1.243       .  T
C583        C584   1.176       .  T
C585        C586   1.176       .  T
C587        C588   1.176       .  T
C589        C590   1.243       .  T
C591        C592   1.243       .  T
C593        C594   1.243       .  T
C595        C596   1.176       .  T
C597        C598   1.176       .  T
C599        C600   1.176       .  T
