geometry optimzed in LAMMPS
_audit_creation_date              2020-11-30 
_audit_creation_method            'lammps2cif' 
_symmetry_space_group_name_H-M    'P1' 
_symmetry_Int_Tables_number       1 
_symmetry_cell_setting            triclinic 
loop_ 
_symmetry_equiv_pos_as_xyz 
  x,y,z 
_cell_length_a                    30.81328051 
_cell_length_b                    30.783666629634354 
_cell_length_c                    123.21336915472932 
_cell_angle_alpha                 90.03962871262135 
_cell_angle_beta                  90.00634889259165 
_cell_angle_gamma                 89.98035405721413 
loop_ 
_atom_site_label 
_atom_site_type_symbol 
_atom_site_fract_x 
_atom_site_fract_y 
_atom_site_fract_z 
_atom_site_charge 
O1          O  0.04182532  0.92182062  0.68820351    -0.73000
O2          O  0.04353508  0.05298645  0.68793788    -0.74000
O3          O  0.04308088  0.98815921  0.70429659    -0.62600
O4          O  0.04281407  0.98585800  0.67159757    -0.71000
O5          O  0.97123146  0.98634979  0.67146006    -0.70600
O6          O  0.97105657  0.99056554  0.70427721    -0.61800
O7          O  0.97195672  0.05345274  0.68727569    -0.74300
O8          O  0.97017696  0.92322499  0.68869618    -0.73100
Cu9        Cu  0.04529728  0.98719477  0.68796942     1.04600
Cu10       Cu  0.96864385  0.98838715  0.68789369     1.04300
C11         C  0.00572327  0.90171069  0.68880653     0.93200
C12         C  0.00766832  0.07415764  0.68771966     0.92300
C13         C  0.00708668  0.98972908  0.70941837     0.84500
C14         C  0.00720853  0.98580796  0.66627721     0.90700
O15         O  0.95506308  0.48795290  0.70546246    -0.73000
O16         O  0.96468324  0.49114570  0.67279795    -0.74000
O17         O  0.95994368  0.42338015  0.68875009    -0.62600
O18         O  0.96005168  0.55443721  0.68959112    -0.71000
O19         O  0.03201869  0.55340632  0.69028291    -0.70600
O20         O  0.03162361  0.42340116  0.69052444    -0.61800
O21         O  0.03580252  0.48739001  0.67394740    -0.74300
O22         O  0.02679018  0.48883108  0.70668285    -0.73100
Cu23       Cu  0.95740453  0.48915933  0.68909210     1.04600
Cu24       Cu  0.03399077  0.48828391  0.69039250     1.04300
C25         C  0.98950014  0.48843978  0.71124810     0.93200
C26         C  0.00160350  0.48949070  0.66809023     0.92300
C27         C  0.99587846  0.40282486  0.68964149     0.84500
C28         C  0.99631183  0.57445264  0.69009835     0.90700
O29         O  0.47101820  0.91811137  0.68690376    -0.73000
O30         O  0.47193678  0.04888234  0.68639108    -0.74000
O31         O  0.47027623  0.98294097  0.67038001    -0.62600
O32         O  0.47166535  0.98487695  0.70297315    -0.71000
O33         O  0.54368941  0.98448059  0.70289718    -0.70600
O34         O  0.54218513  0.98157938  0.67007144    -0.61800
O35         O  0.54395007  0.04792270  0.68609384    -0.74300
O36         O  0.54301253  0.91783825  0.68685017    -0.73100
Cu37       Cu  0.46873792  0.98361498  0.68667218     1.04600
Cu38       Cu  0.54572786  0.98286170  0.68647321     1.04300
C39         C  0.50699362  0.89736891  0.68697830     0.93200
C40         C  0.50823512  0.06895272  0.68610391     0.92300
C41         C  0.50582054  0.98243365  0.66505227     0.84500
C42         C  0.50772204  0.98555002  0.70808583     0.90700
O43         O  0.53958859  0.48454734  0.67000555    -0.73000
O44         O  0.54614227  0.48049071  0.70267624    -0.74000
O45         O  0.54156204  0.41734371  0.68591820    -0.62600
O46         O  0.54435757  0.54788757  0.68667916    -0.71000
O47         O  0.47278042  0.54902605  0.68809551    -0.70600
O48         O  0.46988818  0.41868257  0.68616561    -0.61800
O49         O  0.47463257  0.48120049  0.70344432    -0.74300
O50         O  0.46779814  0.48783839  0.67094647    -0.73100
Cu51       Cu  0.54541474  0.48245090  0.68629751     1.04600
Cu52       Cu  0.46882497  0.48410873  0.68721100     1.04300
C53         C  0.50263930  0.48744268  0.66533502     0.93200
C54         C  0.51130340  0.48058117  0.70829198     0.92300
C55         C  0.50527432  0.39718461  0.68574115     0.84500
C56         C  0.50891386  0.56921004  0.68748839     0.90700
O57         O  0.01284482  0.05159529  0.82822396    -0.73000
O58         O  0.00862210  0.04191570  0.79569099    -0.74000
O59         O  0.94512782  0.05322382  0.81251089    -0.62600
O60         O  0.07540207  0.03982609  0.81155579    -0.71000
O61         O  0.06872250  0.96859084  0.81331100    -0.70600
O62         O  0.93873835  0.98168223  0.81348974    -0.61800
O63         O  0.00282057  0.97019536  0.79702706    -0.74300
O64         O  0.00526891  0.98005099  0.82953515    -0.73100
Cu65       Cu  0.01066935  0.04914920  0.81192556     1.04600
Cu66       Cu  0.00354045  0.97267385  0.81336411     1.04300
C67         C  0.01009178  0.01722853  0.83398370     0.93200
C68         C  0.00574143  0.00451746  0.79124956     0.92300
C69         C  0.92125874  0.01935439  0.81323784     0.84500
C70         C  0.09273178  0.00225448  0.81250438     0.90700
O71         O  0.04973474  0.52926305  0.81407824    -0.73000
O72         O  0.91907234  0.52473636  0.81405812    -0.74000
O73         O  0.98427555  0.53107925  0.83026058    -0.62600
O74         O  0.98455828  0.52371176  0.79790057    -0.71000
O75         O  0.98620628  0.45167888  0.79876707    -0.70600
O76         O  0.98774022  0.45909977  0.83134507    -0.61800
O77         O  0.92171905  0.45301420  0.81537574    -0.74300
O78         O  0.05245916  0.45742447  0.81464412    -0.73100
Cu79       Cu  0.98434783  0.52965191  0.81406023     1.04600
Cu80       Cu  0.98715176  0.45275138  0.81509358     1.04300
C81         C  0.07182087  0.49408277  0.81409258     0.93200
C82         C  0.89967724  0.48811194  0.81472200     0.92300
C83         C  0.98577542  0.49637038  0.83589143     0.84500
C84         C  0.98526641  0.48672723  0.79321739     0.90700
O85         O  0.50511637  0.04062825  0.79472836    -0.73000
O86         O  0.50285397  0.04939927  0.82748518    -0.74000
O87         O  0.56933734  0.05004650  0.81133624    -0.62600
O88         O  0.43882641  0.04008082  0.81097058    -0.71000
O89         O  0.44402602  0.96837217  0.81184454    -0.70600
O90         O  0.57436505  0.97842212  0.81265251    -0.61800
O91         O  0.50716942  0.97765797  0.82855061    -0.74300
O92         O  0.51057984  0.96890022  0.79587738    -0.73100
Cu93       Cu  0.50385562  0.04753160  0.81107357     1.04600
Cu94       Cu  0.50927568  0.97088362  0.81226675     1.04300
C95         C  0.50794757  0.00341396  0.79015065     0.93200
C96         C  0.50449881  0.01474273  0.83319038     0.92300
C97         C  0.59250640  0.01573761  0.81215219     0.84500
C98         C  0.42078891  0.00271284  0.81136903     0.90700
O99         O  0.41831473  0.46480791  0.81035359    -0.73000
O100        O  0.54860222  0.45602035  0.81171877    -0.74000
O101        O  0.48069866  0.45796678  0.82737418    -0.62600
O102        O  0.48664058  0.46330388  0.79480327    -0.71000
O103        O  0.49274425  0.53495353  0.79548800    -0.70600
O104        O  0.48433612  0.52992324  0.82796476    -0.61800
O105        O  0.55309007  0.52785138  0.81263287    -0.74300
O106        O  0.42271834  0.53672090  0.81080761    -0.73100
Cu107      Cu  0.48325603  0.45802857  0.81103286     1.04600
Cu108      Cu  0.48821400  0.53485527  0.81175266     1.04300
C109        C  0.39993644  0.50203257  0.81038411     0.93200
C110        C  0.57141681  0.49060180  0.81233415     0.92300
C111        C  0.48219491  0.49331172  0.83281155     0.84500
C112        C  0.49197618  0.49973619  0.79001064     0.90700
O113        O  0.96405389  0.07342378  0.31157718    -0.73000
O114        O  0.96148451  0.94287057  0.31145093    -0.74000
O115        O  0.96208915  0.00792218  0.32780837    -0.62600
O116        O  0.96327797  0.00764690  0.29498138    -0.71000
O117        O  0.03525248  0.00549747  0.29517726    -0.70600
O118        O  0.03408574  0.00729833  0.32790092    -0.61800
O119        O  0.03348090  0.94159202  0.31181632    -0.74300
O120        O  0.03584389  0.07175548  0.31127129    -0.73100
Cu121      Cu  0.96019221  0.00810990  0.31141578     1.04600
Cu122      Cu  0.03712384  0.00658096  0.31152684     1.04300
C123        C  0.00043691  0.09333625  0.31156473     0.93200
C124        C  0.99712341  0.92168855  0.31180893     0.92300
C125        C  0.99797762  0.00728941  0.33301867     0.84500
C126        C  0.99949332  0.00580735  0.28992063     0.90700
O127        O  0.03738178  0.50568717  0.32988349    -0.73000
O128        O  0.04273751  0.51122940  0.29704340    -0.74000
O129        O  0.03823793  0.57366717  0.31390698    -0.62600
O130        O  0.04256649  0.44302147  0.31290677    -0.71000
O131        O  0.97073361  0.44099266  0.31174871    -0.70600
O132        O  0.96667310  0.57118546  0.31402807    -0.61800
O133        O  0.97072941  0.51057302  0.29650574    -0.74300
O134        O  0.96577750  0.50095745  0.32901029    -0.73100
Cu135      Cu  0.04279430  0.50846659  0.31345698     1.04600
Cu136      Cu  0.96606850  0.50590350  0.31277355     1.04300
C137        C  0.00058490  0.50182354  0.33462480     0.93200
C138        C  0.00729792  0.51225955  0.29164149     0.92300
C139        C  0.00174555  0.59333596  0.31415838     0.84500
C140        C  0.00724059  0.42141189  0.31230288     0.90700
O141        O  0.45971197  0.01447045  0.29580820    -0.73000
O142        O  0.46296619  0.01404533  0.32851374    -0.74000
O143        O  0.46552244  0.07943120  0.31227249    -0.62600
O144        O  0.45615491  0.94927538  0.31215075    -0.71000
O145        O  0.52795950  0.94396272  0.31195759    -0.70600
O146        O  0.53701432  0.07482007  0.31122882    -0.61800
O147        O  0.53487020  0.01016005  0.32793011    -0.74300
O148        O  0.53138443  0.00794072  0.29543710    -0.73100
Cu149      Cu  0.45859774  0.01453011  0.31220291     1.04600
Cu150      Cu  0.53530475  0.00910762  0.31163893     1.04300
C151        C  0.49515351  0.01081272  0.29047350     0.93200
C152        C  0.49960298  0.01182909  0.33335439     0.92300
C153        C  0.50251232  0.09793534  0.31160987     0.84500
C154        C  0.49049984  0.92604510  0.31208966     0.90700
O155        O  0.53916389  0.44953170  0.31177652    -0.73000
O156        O  0.52910954  0.58005884  0.31212337    -0.74000
O157        O  0.53727959  0.51465118  0.32828956    -0.62600
O158        O  0.53111887  0.51495240  0.29573105    -0.71000
O159        O  0.45934787  0.51174740  0.29658523    -0.70600
O160        O  0.46588705  0.50710551  0.32912494    -0.61800
O161        O  0.45758456  0.57462813  0.31348579    -0.74300
O162        O  0.46731926  0.44445840  0.31228604    -0.73100
Cu163      Cu  0.53667231  0.51501220  0.31195603     1.04600
Cu164      Cu  0.46005391  0.50931594  0.31289629     1.04300
C165        C  0.50466979  0.42648211  0.31190740     0.93200
C166        C  0.49179233  0.59796929  0.31291688     0.92300
C167        C  0.50261100  0.51032091  0.33387627     0.84500
C168        C  0.49425042  0.51369876  0.29100234     0.90700
O169        O  0.03624059  0.99782886  0.45338323    -0.73000
O170        O  0.03498789  0.99816275  0.42063305    -0.74000
O171        O  0.03701811  0.06359724  0.43717101    -0.62600
O172        O  0.03400297  0.93267879  0.43693269    -0.71000
O173        O  0.96209118  0.93467395  0.43642205    -0.70600
O174        O  0.96500962  0.06477906  0.43776110    -0.61800
O175        O  0.96341016  0.00271808  0.42073155    -0.74300
O176        O  0.96445805  0.99664912  0.45350452    -0.73100
Cu177      Cu  0.03808093  0.99802297  0.43702147     1.04600
Cu178      Cu  0.96127990  0.99976585  0.43711790     1.04300
C179        C  0.00052790  0.99667168  0.45865274     0.93200
C180        C  0.99911314  0.00089427  0.41545459     0.92300
C181        C  0.00132036  0.08472458  0.43754041     0.84500
C182        C  0.99746152  0.91306357  0.43659075     0.90700
O183        O  0.03142234  0.49864800  0.42210550    -0.73000
O184        O  0.03012584  0.49984312  0.45497584    -0.74000
O185        O  0.03137247  0.43408686  0.43872296    -0.62600
O186        O  0.03025086  0.56465293  0.43830764    -0.71000
O187        O  0.95834441  0.56397398  0.43857116    -0.70600
O188        O  0.95963649  0.43346139  0.43793932    -0.61800
O189        O  0.95822405  0.49763213  0.45472679    -0.74300
O190        O  0.95943623  0.49939194  0.42197159    -0.73100
Cu191      Cu  0.03331140  0.49936903  0.43854786     1.04600
Cu192      Cu  0.95645136  0.49863946  0.43831812     1.04300
C193        C  0.99554988  0.49864268  0.41687129     0.93200
C194        C  0.99388282  0.49862665  0.46003622     0.92300
C195        C  0.99570402  0.41301371  0.43822350     0.84500
C196        C  0.99409128  0.58500029  0.43833126     0.90700
O197        O  0.47236261  0.99548662  0.45296898    -0.73000
O198        O  0.47254861  0.99902751  0.42044990    -0.74000
O199        O  0.47324870  0.93180256  0.43633300    -0.62600
O200        O  0.47193576  0.06238675  0.43711154    -0.71000
O201        O  0.54389510  0.06298600  0.43667675    -0.70600
O202        O  0.54517502  0.93233713  0.43687842    -0.61800
O203        O  0.54442509  0.99731156  0.42039846    -0.74300
O204        O  0.54428896  0.99800092  0.45310759    -0.73100
Cu205      Cu  0.47005558  0.99710920  0.43670926     1.04600
Cu206      Cu  0.54698190  0.99766329  0.43675844     1.04300
C207        C  0.50815107  0.99657972  0.45819324     0.93200
C208        C  0.50840912  0.99872475  0.41525289     0.92300
C209        C  0.50937924  0.91141477  0.43665215     0.84500
C210        C  0.50773612  0.08331720  0.43692397     0.90700
O211        O  0.46136062  0.49690090  0.45286994    -0.73000
O212        O  0.46822920  0.49711066  0.42036751    -0.74000
O213        O  0.46513817  0.43166771  0.43659199    -0.62600
O214        O  0.46520616  0.56284946  0.43667423    -0.71000
O215        O  0.53714173  0.56226257  0.43730753    -0.70600
O216        O  0.53698185  0.43227146  0.43780202    -0.61800
O217        O  0.54020498  0.49637473  0.42126392    -0.74300
O218        O  0.53315347  0.49855952  0.45383981    -0.73100
Cu219      Cu  0.46242998  0.49715554  0.43658903     1.04600
Cu220      Cu  0.53932547  0.49733646  0.43758648     1.04300
C221        C  0.49611796  0.49784086  0.45851121     0.93200
C222        C  0.50521696  0.49665908  0.41569331     0.92300
C223        C  0.50127949  0.41136769  0.43719506     0.84500
C224        C  0.50139808  0.58319143  0.43701936     0.90700
O225        O  0.06993343  0.96446808  0.06102356    -0.73000
O226        O  0.93908044  0.95904902  0.06181775    -0.74000
O227        O  0.00285624  0.96464049  0.04510886    -0.62600
O228        O  0.00592933  0.95884358  0.07772077    -0.71000
O229        O  0.00453528  0.03083462  0.07832831    -0.70600
O230        O  0.99896224  0.03651195  0.04591874    -0.61800
O231        O  0.93670558  0.03095893  0.06279870    -0.74300
O232        O  0.06690718  0.03646661  0.06154030    -0.73100
Cu233      Cu  0.00462971  0.95916821  0.06138498     1.04600
Cu234      Cu  0.00173483  0.03611437  0.06217435     1.04300
C235        C  0.08898853  0.00137445  0.06115192     0.93200
C236        C  0.91726759  0.99431748  0.06245309     0.92300
C237        C  0.00001423  0.00147596  0.04037273     0.84500
C238        C  0.00531956  0.99418086  0.08316802     0.90700
O239        O  0.07073669  0.45635071  0.06439093    -0.73000
O240        O  0.94010498  0.45794181  0.06439710    -0.74000
O241        O  0.00598975  0.45390021  0.04804157    -0.62600
O242        O  0.00560198  0.46108035  0.08062103    -0.71000
O243        O  0.00709658  0.53303718  0.07954690    -0.70600
O244        O  0.00435935  0.52523552  0.04710571    -0.61800
O245        O  0.94074793  0.52981402  0.06357409    -0.74300
O246        O  0.07158660  0.52818369  0.06309859    -0.73100
Cu247      Cu  0.00557897  0.45481641  0.06438862     1.04600
Cu248      Cu  0.00605800  0.53153820  0.06329081     1.04300
C249        C  0.09180441  0.49197569  0.06376093     0.93200
C250        C  0.91970161  0.49409538  0.06406108     0.92300
C251        C  0.00477421  0.48848056  0.04232499     0.84500
C252        C  0.00633256  0.49832288  0.08520722     0.90700
O253        O  0.43970364  0.04000065  0.06265700    -0.73000
O254        O  0.57048363  0.03198754  0.06239996    -0.74000
O255        O  0.50476807  0.03724891  0.04619029    -0.62600
O256        O  0.50650476  0.03520182  0.07878761    -0.71000
O257        O  0.50019118  0.96358386  0.07853224    -0.70600
O258        O  0.50132384  0.96520800  0.04582545    -0.61800
O259        O  0.56605313  0.96009088  0.06242049    -0.74300
O260        O  0.43577253  0.96818455  0.06195199    -0.73100
Cu261      Cu  0.50540390  0.03861518  0.06250969     1.04600
Cu262      Cu  0.50062662  0.96178341  0.06217081     1.04300
C263        C  0.41705817  0.00520464  0.06224582     0.93200
C264        C  0.58888435  0.99474610  0.06254385     0.92300
C265        C  0.50309813  0.00164275  0.04087492     0.84500
C266        C  0.50429628  0.99905680  0.08384114     0.90700
O267        O  0.50292998  0.53050026  0.04614030    -0.73000
O268        O  0.50539678  0.53019700  0.07872520    -0.74000
O269        O  0.56973341  0.53195595  0.06238234    -0.62600
O270        O  0.43918577  0.52840116  0.06263419    -0.71000
O271        O  0.44126280  0.45641376  0.06263751    -0.70600
O272        O  0.57154535  0.46000865  0.06217118    -0.61800
O273        O  0.50753791  0.45814024  0.07876830    -0.74300
O274        O  0.50497653  0.45932415  0.04594157    -0.73100
Cu275      Cu  0.50429090  0.53270789  0.06245435     1.04600
Cu276      Cu  0.50643134  0.45596028  0.06235465     1.04300
C277        C  0.50267521  0.49512289  0.04073484     0.93200
C278        C  0.50719690  0.49429525  0.08389503     0.92300
C279        C  0.59129982  0.49646460  0.06244168     0.84500
C280        C  0.41962653  0.49180298  0.06271926     0.90700
O281        O  0.93944364  0.95082406  0.18632735    -0.73000
O282        O  0.06974740  0.95773223  0.18639102    -0.74000
O283        O  0.00524418  0.95374918  0.20279861    -0.62600
O284        O  0.00468895  0.95568776  0.17004085    -0.71000
O285        O  0.99908907  0.02745414  0.17036592    -0.70600
O286        O  0.00248604  0.02583072  0.20287586    -0.61800
O287        O  0.06628655  0.02956317  0.18609304    -0.74300
O288        O  0.93566600  0.02272878  0.18688559    -0.73100
Cu289      Cu  0.00487228  0.95196646  0.18639467     1.04600
Cu290      Cu  0.00075820  0.02886123  0.18659089     1.04300
C291        C  0.91693368  0.98569217  0.18647389     0.93200
C292        C  0.08872569  0.99459215  0.18610818     0.92300
C293        C  0.00431648  0.98976888  0.20797349     0.84500
C294        C  0.00169855  0.99198319  0.16504339     0.90700
O295        O  0.00099798  0.55702171  0.20433493    -0.73000
O296        O  0.00294570  0.55157125  0.17173838    -0.74000
O297        O  0.93665551  0.55586317  0.18766052    -0.62600
O298        O  0.06711307  0.55173774  0.18834293    -0.71000
O299        O  0.06459991  0.48048103  0.18773467    -0.70600
O300        O  0.93467853  0.48496821  0.18966570    -0.61800
O301        O  0.99637416  0.47991555  0.17243068    -0.74300
O302        O  0.00331337  0.48503422  0.20500536    -0.73100
Cu303      Cu  0.00195843  0.55655597  0.18799616     1.04600
Cu304      Cu  0.99960034  0.48011880  0.18873821     1.04300
C305        C  0.00280182  0.52183645  0.20980386     0.93200
C306        C  0.99967565  0.51493972  0.16693587     0.92300
C307        C  0.91459095  0.52104278  0.18874644     0.84500
C308        C  0.08694076  0.51534623  0.18788924     0.90700
O309        O  0.43872265  0.02969572  0.18698219    -0.73000
O310        O  0.56931361  0.02518813  0.18715895    -0.74000
O311        O  0.50489962  0.02721140  0.17086646    -0.62600
O312        O  0.50337325  0.02824176  0.20336872    -0.71000
O313        O  0.49999319  0.95627188  0.20367051    -0.70600
O314        O  0.50376296  0.95516661  0.17092032    -0.61800
O315        O  0.56695922  0.95326165  0.18767450    -0.74300
O316        O  0.43651645  0.95765062  0.18693242    -0.73100
Cu317      Cu  0.50412636  0.03003740  0.18710416     1.04600
Cu318      Cu  0.50167646  0.95303797  0.18730835     1.04300
C319        C  0.41702732  0.99430533  0.18692176     0.93200
C320        C  0.58879660  0.98851494  0.18733680     0.92300
C321        C  0.50550345  0.99114797  0.16574687     0.84500
C322        C  0.50098928  0.99268368  0.20866817     0.90700
O323        O  0.43386591  0.55033964  0.18647939    -0.73000
O324        O  0.56392477  0.55879340  0.18817735    -0.74000
O325        O  0.50347514  0.55289567  0.17089717    -0.62600
O326        O  0.49575287  0.55509320  0.20371150    -0.71000
O327        O  0.49784797  0.48342580  0.20376071    -0.70600
O328        O  0.50588163  0.48133998  0.17140895    -0.61800
O329        O  0.56761524  0.48675897  0.18860880    -0.74300
O330        O  0.43760353  0.47828245  0.18675474    -0.73100
Cu331      Cu  0.49897866  0.55687201  0.18729065     1.04600
Cu332      Cu  0.50247980  0.48006891  0.18763226     1.04300
C333        C  0.41533029  0.51319441  0.18650859     0.93200
C334        C  0.58618080  0.52390589  0.18865924     0.92300
C335        C  0.50638292  0.51648619  0.16592854     0.84500
C336        C  0.49552503  0.51920421  0.20894750     0.90700
O337        O  0.00149471  0.05084235  0.92108633    -0.73000
O338        O  0.99762226  0.04636107  0.95371019    -0.74000
O339        O  0.06501805  0.05008083  0.93785730    -0.62600
O340        O  0.93419256  0.04754199  0.93689516    -0.71000
O341        O  0.93607694  0.97563712  0.93577350    -0.70600
O342        O  0.06634880  0.97818953  0.93808022    -0.61800
O343        O  0.99649027  0.97441085  0.95304889    -0.74300
O344        O  0.00607107  0.97903666  0.92067197    -0.73100
Cu345      Cu  0.99952066  0.05125919  0.93740830     1.04600
Cu346      Cu  0.00128222  0.97436902  0.93685715     1.04300
C347        C  0.00490812  0.01545703  0.91572272     0.93200
C348        C  0.99611567  0.00960497  0.95852756     0.92300
C349        C  0.08642977  0.01452035  0.93820872     0.84500
C350        C  0.91452373  0.01109839  0.93618144     0.90700
O351        O  0.05149908  0.52631760  0.93930259    -0.73000
O352        O  0.92146336  0.53567948  0.94008594    -0.74000
O353        O  0.98793410  0.52640022  0.95591761    -0.62600
O354        O  0.98608209  0.53531208  0.92341807    -0.71000
O355        O  0.97864193  0.46436663  0.92243471    -0.70600
O356        O  0.98338383  0.45454571  0.95478105    -0.61800
O357        O  0.91602400  0.46394700  0.93922634    -0.74300
O358        O  0.04661172  0.45473232  0.93812272    -0.73100
Cu359      Cu  0.98683453  0.53341135  0.93972254     1.04600
Cu360      Cu  0.98097503  0.45691997  0.93857763     1.04300
C361        C  0.06976164  0.48913833  0.93871146     0.93200
C362        C  0.89815348  0.50134610  0.93980591     0.92300
C363        C  0.98645215  0.48910954  0.96045139     0.84500
C364        C  0.98223032  0.50100261  0.91768195     0.90700
O365        O  0.49784087  0.04723486  0.92103707    -0.73000
O366        O  0.50723106  0.04355700  0.95354280    -0.74000
O367        O  0.56728805  0.04186553  0.93618313    -0.62600
O368        O  0.43724137  0.04876763  0.93852491    -0.71000
O369        O  0.43328827  0.97686514  0.93759769    -0.70600
O370        O  0.56398873  0.96991689  0.93641882    -0.61800
O371        O  0.49993670  0.97230654  0.95331042    -0.74300
O372        O  0.49680212  0.97536283  0.92046501    -0.73100
Cu373      Cu  0.50250194  0.04776343  0.93732045     1.04600
Cu374      Cu  0.49837730  0.97104696  0.93690923     1.04300
C375        C  0.49689606  0.01201195  0.91555147     0.93200
C376        C  0.50410437  0.00766319  0.95866572     0.92300
C377        C  0.58625583  0.00494300  0.93616776     0.84500
C378        C  0.41478709  0.01386419  0.93845497     0.90700
O379        O  0.48207460  0.53480706  0.92023599    -0.73000
O380        O  0.48193759  0.53728502  0.95308990    -0.74000
O381        O  0.54697512  0.54094589  0.93653830    -0.62600
O382        O  0.41640363  0.53139184  0.93678488    -0.71000
O383        O  0.42129278  0.45965048  0.93701212    -0.70600
O384        O  0.55151713  0.46934773  0.93704600    -0.61800
O385        O  0.48680842  0.46532563  0.95328833    -0.74300
O386        O  0.48571303  0.46345115  0.92064269    -0.73100
Cu387      Cu  0.48158459  0.53863623  0.93664470     1.04600
Cu388      Cu  0.48651625  0.46204415  0.93699193     1.04300
C389        C  0.48401778  0.49860246  0.91516404     0.93200
C390        C  0.48473890  0.50152667  0.95832772     0.92300
C391        C  0.57006290  0.50649192  0.93685379     0.84500
C392        C  0.39814612  0.49407577  0.93695670     0.90700
O393        O  0.04424475  0.00111700  0.54604856    -0.73000
O394        O  0.04334650  0.00063535  0.57880471    -0.74000
O395        O  0.04797606  0.93593319  0.56240397    -0.62600
O396        O  0.03998627  0.06626204  0.56248309    -0.71000
O397        O  0.96809392  0.06246908  0.56260992    -0.70600
O398        O  0.97616800  0.93214602  0.56191100    -0.61800
O399        O  0.97158767  0.99545672  0.57861329    -0.74300
O400        O  0.97228900  0.99813856  0.54601092    -0.73100
Cu401      Cu  0.04641452  0.00124428  0.56243757     1.04600
Cu402      Cu  0.96957018  0.99699163  0.56228659     1.04300
C403        C  0.00828702  0.99927108  0.54088016     0.93200
C404        C  0.00728349  0.99723705  0.58387411     0.92300
C405        C  0.01317926  0.91341457  0.56212202     0.84500
C406        C  0.00295054  0.08497226  0.56258346     0.90700
O407        O  0.97363425  0.56685061  0.56440515    -0.73000
O408        O  0.96758126  0.43573800  0.56402295    -0.74000
O409        O  0.97312938  0.50067171  0.58064734    -0.62600
O410        O  0.96664324  0.50239225  0.54803663    -0.71000
O411        O  0.03831574  0.49774776  0.54704217    -0.70600
O412        O  0.04502683  0.49833650  0.57992342    -0.61800
O413        O  0.03937959  0.43304863  0.56359990    -0.74300
O414        O  0.04532781  0.56308470  0.56321240    -0.73100
Cu415      Cu  0.96777091  0.50151196  0.56434290     1.04600
Cu416      Cu  0.04450424  0.49794581  0.56343859     1.04300
C417        C  0.01056245  0.58558886  0.56361220     0.93200
C418        C  0.00276646  0.41366411  0.56364393     0.92300
C419        C  0.00985323  0.49937783  0.58545199     0.84500
C420        C  0.00126903  0.50028961  0.54236830     0.90700
O421        O  0.52693221  0.99838165  0.57794576    -0.73000
O422        O  0.52857276  0.00005238  0.54547286    -0.74000
O423        O  0.52608120  0.06508884  0.56197005    -0.62600
O424        O  0.52843793  0.93416489  0.56142105    -0.71000
O425        O  0.45645878  0.93305932  0.56106635    -0.70600
O426        O  0.45409225  0.06347699  0.56181878    -0.61800
O427        O  0.45664973  0.99943942  0.54506226    -0.74300
O428        O  0.45495893  0.99661437  0.57789811    -0.73100
Cu429      Cu  0.52995828  0.99956610  0.56171392     1.04600
Cu430      Cu  0.45299262  0.99819586  0.56145865     1.04300
C431        C  0.49098156  0.99655408  0.58307392     0.93200
C432        C  0.49314553  0.99954293  0.54010403     0.92300
C433        C  0.48957863  0.08490292  0.56199885     0.84500
C434        C  0.49275299  0.91301211  0.56108520     0.90700
O435        O  0.52669842  0.49976696  0.57803610    -0.73000
O436        O  0.52369551  0.49570396  0.54546923    -0.74000
O437        O  0.52880978  0.56279988  0.56119275    -0.62600
O438        O  0.52207124  0.43266380  0.56226650    -0.71000
O439        O  0.45021656  0.43570916  0.56202729    -0.70600
O440        O  0.45697059  0.56657189  0.56203498    -0.61800
O441        O  0.45204613  0.50167834  0.54580046    -0.74300
O442        O  0.45480575  0.50084177  0.57843250    -0.73100
Cu443      Cu  0.52776991  0.49759990  0.56173890     1.04600
Cu444      Cu  0.45096676  0.50133696  0.56210551     1.04300
C445        C  0.49121717  0.50027378  0.58340310     0.93200
C446        C  0.48748028  0.49874445  0.54046917     0.92300
C447        C  0.49395940  0.58524272  0.56140305     0.84500
C448        C  0.48530002  0.41350364  0.56217845     0.90700
C449        C  0.49641344  0.63321027  0.56076917     0.01300
C450        C  0.52198849  0.65678264  0.56824026     0.04100
C451        C  0.52328208  0.70248496  0.56775972    -0.12000
C452        C  0.49851276  0.72490556  0.55994214     0.23400
C453        C  0.47414845  0.70136514  0.55224573    -0.12500
C454        C  0.47337971  0.65563956  0.55259868     0.04800
C455        C  0.49674688  0.77320319  0.56010815     0.27200
C456        C  0.46975974  0.79457690  0.56765569    -0.13200
C457        C  0.46874036  0.84028266  0.56807997     0.05300
C458        C  0.49351016  0.86493324  0.56065910    -0.09200
C459        C  0.51913806  0.84342290  0.55281474     0.06100
C460        C  0.52176546  0.79774628  0.55276285    -0.13600
Br461      Br  0.44171420  0.73192729  0.54123349    -0.05600
Br462      Br  0.55369420  0.62681427  0.57948808     0.00000
Br463      Br  0.43473975  0.86876116  0.57916901     0.00400
Br464      Br  0.56012310  0.76866076  0.54274084    -0.04000
Br465      Br  0.44249266  0.62374031  0.54152450     0.00500
Br466      Br  0.55890757  0.73472581  0.57782077    -0.03300
Br467      Br  0.43415735  0.76094136  0.57743050    -0.04100
Br468      Br  0.54809298  0.87622602  0.54159327    -0.00200
C469        C  0.48379932  0.36524333  0.56219845     0.01300
C470        C  0.45644616  0.34261418  0.56947936     0.04100
C471        C  0.45667308  0.29678253  0.56970783    -0.12000
C472        C  0.48469082  0.27327226  0.56282193     0.23400
C473        C  0.51198596  0.29576037  0.55557522    -0.12500
C474        C  0.51092459  0.34144601  0.55509406     0.04800
C475        C  0.48471438  0.22485994  0.56290317     0.27200
C476        C  0.50828027  0.20185527  0.57085526    -0.13200
C477        C  0.50953482  0.15607121  0.57063231     0.05300
C478        C  0.48818049  0.13303976  0.56227741    -0.09200
C479        C  0.46471203  0.15616271  0.55430393     0.06100
C480        C  0.46233767  0.20183372  0.55474506    -0.13600
Br481      Br  0.55117039  0.26366777  0.54633121    -0.05600
Br482      Br  0.41979478  0.37398332  0.57949723     0.00000
Br483      Br  0.53883394  0.12493366  0.58208969     0.00400
Br484      Br  0.42827324  0.23318945  0.54418452    -0.04000
Br485      Br  0.54461899  0.37096321  0.54411808     0.00500
Br486      Br  0.41869754  0.26591963  0.57947963    -0.03300
Br487      Br  0.53895463  0.23323405  0.58203507    -0.04100
Br488      Br  0.43787434  0.12563760  0.54236754    -0.00200
C489        C  0.01539723  0.86528736  0.56214536     0.01300
C490        C  0.04427345  0.84293909  0.55516173     0.04100
C491        C  0.04513053  0.79714258  0.55508802    -0.12000
C492        C  0.01668843  0.77350838  0.56180533     0.23400
C493        C  0.98781524  0.79566072  0.56871478    -0.12500
C494        C  0.98773881  0.84131216  0.56906315     0.04800
C495        C  0.01715226  0.72525615  0.56176127     0.27200
C496        C  0.98851578  0.70216631  0.55498030    -0.13200
C497        C  0.98667770  0.65650292  0.55549859     0.05300
C498        C  0.01315984  0.63365099  0.56293745    -0.09200
C499        C  0.04278671  0.65693385  0.56950790     0.06100
C500        C  0.04473159  0.70258632  0.56889506    -0.13600
Br501      Br  0.94796956  0.76309884  0.57764762    -0.05600
Br502      Br  0.08133095  0.87447673  0.54527729     0.00000
Br503      Br  0.94954864  0.62548309  0.54552139     0.00400
Br504      Br  0.08471781  0.73455202  0.57794047    -0.04000
Br505      Br  0.95147938  0.87053163  0.57958315     0.00500
Br506      Br  0.08481124  0.76641786  0.54570219    -0.03300
Br507      Br  0.95168475  0.73351152  0.54501874    -0.04100
Br508      Br  0.07960947  0.62692580  0.57973535    -0.00200
C509        C  0.00144824  0.36534782  0.56311555     0.01300
C510        C  0.02887793  0.34263537  0.55581524     0.04100
C511        C  0.02827472  0.29686275  0.55544613    -0.12000
C512        C  0.00023911  0.27334515  0.56228515     0.23400
C513        C  0.97266211  0.29574235  0.56949066    -0.12500
C514        C  0.97333628  0.34149963  0.56996205     0.04800
C515        C  0.00088359  0.22496566  0.56224746     0.27200
C516        C  0.97609491  0.20144766  0.55462788    -0.13200
C517        C  0.97619351  0.15562526  0.55478823     0.05300
C518        C  0.00078837  0.13309462  0.56266753    -0.09200
C519        C  0.02472813  0.15680622  0.57044219     0.06100
C520        C  0.02553960  0.20250130  0.57007082    -0.13600
Br521      Br  0.93445528  0.26322270  0.57887113    -0.05600
Br522      Br  0.06658110  0.37366303  0.54596119     0.00000
Br523      Br  0.94376698  0.12399363  0.54394743     0.00400
Br524      Br  0.06097178  0.23461791  0.58019457    -0.04000
Br525      Br  0.93763044  0.37081528  0.58056209     0.00500
Br526      Br  0.06622578  0.26599232  0.54563706    -0.03300
Br527      Br  0.94247806  0.23225698  0.54389214    -0.04100
Br528      Br  0.05399247  0.12692250  0.58211625    -0.00200
C529        C  0.85010755  0.50496950  0.93998232     0.01300
C530        C  0.82526791  0.48047683  0.94744110     0.04100
C531        C  0.77959299  0.48333793  0.94735019    -0.12000
C532        C  0.75846605  0.51008864  0.93972319     0.23400
C533        C  0.78310762  0.53489525  0.93237973    -0.12500
C534        C  0.82870892  0.53246814  0.93251819     0.04800
C535        C  0.71031341  0.51000228  0.93891686     0.27200
C536        C  0.68953434  0.47785833  0.93270157    -0.13200
C537        C  0.64401186  0.47741270  0.93178980     0.05300
C538        C  0.61851373  0.50924176  0.93715489    -0.09200
C539        C  0.63989622  0.54257304  0.94308808     0.06100
C540        C  0.68555668  0.54252136  0.94402690    -0.13600
Br541      Br  0.75399951  0.57124354  0.92188867    -0.05600
Br542      Br  0.85347353  0.44358946  0.95796784     0.00000
Br543      Br  0.61778369  0.43422203  0.92253698     0.00400
Br544      Br  0.71473565  0.58670684  0.95243123    -0.04000
Br545      Br  0.86131035  0.56467891  0.92188859     0.00500
Br546      Br  0.74555183  0.45043790  0.95760410    -0.03300
Br547      Br  0.72404051  0.43450607  0.92531652    -0.04100
Br548      Br  0.60774515  0.58819656  0.95027701    -0.00200
C549        C  0.11803576  0.48640855  0.93885986     0.01300
C550        C  0.14057288  0.45824811  0.93171377     0.04100
C551        C  0.18633039  0.45790145  0.93155159    -0.12000
C552        C  0.20992690  0.48572350  0.93843391     0.23400
C553        C  0.18778272  0.51320508  0.94568801    -0.12500
C554        C  0.14210620  0.51312989  0.94604134     0.04800
C555        C  0.25811805  0.48684481  0.93788547     0.27200
C556        C  0.28309034  0.45967981  0.94462246    -0.13200
C557        C  0.32879805  0.46130045  0.94421501     0.05300
C558        C  0.34990459  0.49077348  0.93712658    -0.09200
C559        C  0.32446706  0.51733944  0.93023269     0.06100
C560        C  0.27884683  0.51531844  0.93062656    -0.13600
Br561      Br  0.22043471  0.55153446  0.95503043    -0.05600
Br562      Br  0.10962221  0.42138358  0.92169931     0.00000
Br563      Br  0.36170738  0.42374323  0.95370417     0.00400
Br564      Br  0.24426398  0.55140763  0.92115857    -0.04000
Br565      Br  0.11315838  0.54811518  0.95688393     0.00500
Br566      Br  0.21721194  0.42007292  0.92171094    -0.03300
Br567      Br  0.25419916  0.42051233  0.95448606    -0.04100
Br568      Br  0.35142218  0.55487450  0.91969659    -0.00200
C569        C  0.86640383  0.00967122  0.93605150     0.01300
C570        C  0.84409717  0.98334030  0.94359231     0.04100
C571        C  0.79852801  0.98020354  0.94322871    -0.12000
C572        C  0.77464594  0.00539375  0.93577455     0.23400
C573        C  0.79675495  0.03289262  0.92847568    -0.12500
C574        C  0.84252022  0.03440759  0.92846407     0.04800
C575        C  0.72627307  0.00423501  0.93593058     0.27200
C576        C  0.70318324  0.97937914  0.92823120    -0.13200
C577        C  0.65736218  0.97886882  0.92834858     0.05300
C578        C  0.63440078  0.00325581  0.93619663    -0.09200
C579        C  0.65768781  0.02698003  0.94409813     0.06100
C580        C  0.70335939  0.02771396  0.94391188    -0.13600
Br581      Br  0.76411244  0.06893129  0.91859775    -0.05600
Br582      Br  0.87556272  0.95431054  0.95504221     0.00000
Br583      Br  0.62633261  0.94592012  0.91750858     0.00400
Br584      Br  0.73474209  0.06090240  0.95464681    -0.04000
Br585      Br  0.87232467  0.06924204  0.91778537     0.00500
Br586      Br  0.76858862  0.94134992  0.95296609    -0.03300
Br587      Br  0.73462925  0.94602338  0.91754317    -0.04100
Br588      Br  0.62714582  0.05657895  0.95563324    -0.00200
C589        C  0.13478921  0.01522973  0.93870343     0.01300
C590        C  0.15937904  0.98538893  0.93247165     0.04100
C591        C  0.20497870  0.98464387  0.93328932    -0.12000
C592        C  0.22678590  0.01568009  0.93967363     0.23400
C593        C  0.20262016  0.04629737  0.94566264    -0.12500
C594        C  0.15682578  0.04542650  0.94541834     0.04800
C595        C  0.27516640  0.01695878  0.93971057     0.27200
C596        C  0.29885903  0.99775448  0.94825378    -0.13200
C597        C  0.34464661  0.99796310  0.94804718     0.05300
C598        C  0.36690263  0.01626989  0.93914020    -0.09200
C599        C  0.34321851  0.03586789  0.93067612     0.06100
C600        C  0.29753574  0.03635126  0.93097663    -0.13600
Br601      Br  0.23256433  0.08973646  0.95412776    -0.05600
Br602      Br  0.13150951  0.94774102  0.92203393     0.00000
Br603      Br  0.37690102  0.97488687  0.96017807     0.00400
Br604      Br  0.26539880  0.06266164  0.91926385    -0.04000
Br605      Br  0.12490588  0.08455943  0.95473281     0.00500
Br606      Br  0.23799347  0.94083841  0.92568780    -0.03300
Br607      Br  0.26839626  0.97003639  0.96004996    -0.04100
Br608      Br  0.37346618  0.06041997  0.91841190    -0.00200
C609        C  0.63391272  0.52643643  0.18906352     0.01300
C610        C  0.65764219  0.53225395  0.17940614     0.04100
C611        C  0.70328817  0.53183856  0.17964856    -0.12000
C612        C  0.72531993  0.52590758  0.18956443     0.23400
C613        C  0.70158414  0.52130291  0.19926922    -0.12500
C614        C  0.65592029  0.52222325  0.19902980     0.04800
C615        C  0.77348988  0.52450931  0.18972400     0.27200
C616        C  0.79514135  0.48512580  0.18784248    -0.13200
C617        C  0.84081640  0.48386049  0.18729214     0.05300
C618        C  0.86573746  0.52239049  0.18899826    -0.09200
C619        C  0.84308618  0.56207224  0.19102651     0.06100
C620        C  0.79734114  0.56279359  0.19134033    -0.13600
Br621      Br  0.73179314  0.51300054  0.21282593    -0.05600
Br622      Br  0.62750580  0.54105740  0.16586218     0.00000
Br623      Br  0.86704863  0.42867168  0.18354286     0.00400
Br624      Br  0.76647630  0.61646430  0.19401580    -0.04000
Br625      Br  0.62353736  0.51978862  0.21237716     0.00500
Br626      Br  0.73588505  0.53866512  0.16639267    -0.03300
Br627      Br  0.76131497  0.43270899  0.18597974    -0.04100
Br628      Br  0.87267955  0.61662834  0.19355668    -0.00200
C629        C  0.13579420  0.51352056  0.18754094     0.01300
C630        C  0.16079904  0.55165124  0.18543270     0.04100
C631        C  0.20649427  0.54997986  0.18561361    -0.12000
C632        C  0.22805749  0.51019154  0.18695970     0.23400
C633        C  0.20407121  0.47202878  0.18863120    -0.12500
C634        C  0.15841462  0.47359386  0.18931110     0.04800
C635        C  0.27624618  0.50879591  0.18678628     0.27200
C636        C  0.29876102  0.50947534  0.17681559    -0.13200
C637        C  0.34443631  0.51088978  0.17670290     0.05300
C638        C  0.36763267  0.51058444  0.18654148    -0.09200
C639        C  0.34519742  0.50785652  0.19647922     0.06100
C640        C  0.29957635  0.50787829  0.19662019    -0.13600
Br641      Br  0.23453912  0.41735897  0.19002853    -0.05600
Br642      Br  0.13469919  0.60686665  0.18168353     0.00000
Br643      Br  0.37545308  0.51279991  0.16311587     0.00400
Br644      Br  0.26890388  0.50761529  0.21028169    -0.04000
Br645      Br  0.12913554  0.42008884  0.19315100     0.00500
Br646      Br  0.24039785  0.60258283  0.18422671    -0.03300
Br647      Br  0.26686611  0.50847793  0.16335037    -0.04100
Br648      Br  0.37696813  0.50337444  0.20990116    -0.00200
C649        C  0.86882982  0.98348628  0.18594689     0.01300
C650        C  0.84618226  0.00838234  0.17814002     0.04100
C651        C  0.80045194  0.00844044  0.17796623    -0.12000
C652        C  0.77702001  0.98393175  0.18563110     0.23400
C653        C  0.79946552  0.95758994  0.19311004    -0.12500
C654        C  0.84521248  0.95684860  0.19318652     0.04800
C655        C  0.72874214  0.98571790  0.18587245     0.27200
C656        C  0.70747875  0.01429475  0.19305693    -0.13200
C657        C  0.66182869  0.01450098  0.19373521     0.05300
C658        C  0.63697779  0.98694589  0.18697406    -0.09200
C659        C  0.65846331  0.95866547  0.17966644     0.06100
C660        C  0.70416437  0.95796588  0.17918046    -0.13600
Br661      Br  0.76709211  0.92263700  0.20328154    -0.05600
Br662      Br  0.87767013  0.04029023  0.16717904     0.00000
Br663      Br  0.63379748  0.05064981  0.20447413     0.00400
Br664      Br  0.73350240  0.91923355  0.16927379    -0.04000
Br665      Br  0.87500685  0.91973736  0.20337586     0.00500
Br666      Br  0.76965513  0.04158289  0.16713302    -0.03300
Br667      Br  0.74122353  0.05332531  0.20195014    -0.04100
Br668      Br  0.62578664  0.92194786  0.16991801    -0.00200
C669        C  0.36894963  0.99566948  0.18683493     0.01300
C670        C  0.34501757  0.97327622  0.19485484     0.04100
C671        C  0.29930206  0.97364887  0.19460183    -0.12000
C672        C  0.27722253  0.99651646  0.18637809     0.23400
C673        C  0.30100877  0.01933770  0.17845339    -0.12500
C674        C  0.34672825  0.01900244  0.17867915     0.04800
C675        C  0.22893929  0.99675844  0.18610276     0.27200
C676        C  0.20645479  0.96670440  0.17957892    -0.13200
C677        C  0.16073661  0.96698573  0.17927633     0.05300
C678        C  0.13701000  0.99644022  0.18584128    -0.09200
C679        C  0.15985815  0.02672136  0.19234612     0.06100
C680        C  0.20560224  0.02705436  0.19237018    -0.13600
Br681      Br  0.27063583  0.05087755  0.16725630    -0.05600
Br682      Br  0.37463843  0.94384975  0.20654477     0.00000
Br683      Br  0.13128370  0.92847985  0.16930112     0.00400
Br684      Br  0.23677824  0.06874363  0.20110079    -0.04000
Br685      Br  0.37872994  0.04917428  0.16752229     0.00500
Br686      Br  0.26659721  0.94297539  0.20553958    -0.03300
Br687      Br  0.23868146  0.92480703  0.17113328    -0.04100
Br688      Br  0.12923571  0.06660790  0.20172519    -0.00200
C689        C  0.48628444  0.50167547  0.97032713     0.01300
C690        C  0.52575875  0.49313593  0.97570858     0.04100
C691        C  0.52716734  0.49155678  0.98713257    -0.12000
C692        C  0.48898759  0.49791737  0.99324554     0.23400
C693        C  0.44932150  0.50547362  0.98785151    -0.12500
C694        C  0.44812799  0.50818025  0.97642894     0.04800
C695        C  0.49088638  0.49728692  0.00534539     0.27200
C696        C  0.48874939  0.45775513  0.01097871    -0.13200
C697        C  0.49342920  0.45657652  0.02238393     0.05300
C698        C  0.49891567  0.49586118  0.02845928    -0.09200
C699        C  0.49945853  0.53596671  0.02256959     0.06100
C700        C  0.49587925  0.53624726  0.01113619    -0.13600
Br701      Br  0.39650142  0.51055459  0.99614731    -0.05600
Br702      Br  0.57813210  0.48438705  0.96740277     0.00000
Br703      Br  0.49190025  0.39977442  0.02910648     0.00400
Br704      Br  0.49754417  0.59038749  0.00316488    -0.04000
Br705      Br  0.39414255  0.52021431  0.96912010     0.00500
Br706      Br  0.58129660  0.48005686  0.99446030    -0.03300
Br707      Br  0.47839613  0.40501774  0.00284125    -0.04100
Br708      Br  0.50503249  0.59210098  0.02956674    -0.00200
C709        C  0.50963895  0.49509466  0.09590320     0.01300
C710        C  0.54313716  0.51861589  0.10107874     0.04100
C711        C  0.54448331  0.52148960  0.11247985    -0.12000
C712        C  0.51223090  0.50119517  0.11878806     0.23400
C713        C  0.47943127  0.47669489  0.11366248    -0.12500
C714        C  0.47806949  0.47365874  0.10224564     0.04800
C715        C  0.51242878  0.50618051  0.13081098     0.27200
C716        C  0.53266842  0.47480253  0.13735144    -0.13200
C717        C  0.53176946  0.47866235  0.14875152     0.05300
C718        C  0.51025270  0.51436280  0.15379015    -0.09200
C719        C  0.49175947  0.54701074  0.14705194     0.06100
C720        C  0.49263386  0.54253312  0.13565126    -0.13600
Br721      Br  0.43619459  0.44766987  0.12235819    -0.05600
Br722      Br  0.58814882  0.54593783  0.09258216     0.00000
Br723      Br  0.56257052  0.43529619  0.15712534     0.00400
Br724      Br  0.46622530  0.58606959  0.12648582    -0.04000
Br725      Br  0.43152328  0.44213602  0.09532705     0.00500
Br726      Br  0.59065458  0.55303114  0.11954051    -0.03300
Br727      Br  0.56207511  0.42652343  0.13052213    -0.04100
Br728      Br  0.46398284  0.59799281  0.15304361    -0.00200
C729        C  0.50475998  0.00736699  0.97084454     0.01300
C730        C  0.48964567  0.04399206  0.97682416     0.04100
C731        C  0.49095900  0.04396558  0.98826382    -0.12000
C732        C  0.50524400  0.00699897  0.99391267     0.23400
C733        C  0.51956332  0.97033729  0.98812478    -0.12500
C734        C  0.52012619  0.97057297  0.97667668     0.04800
C735        C  0.50447847  0.00625759  0.00598700     0.27200
C736        C  0.54123053  0.01946631  0.01194310    -0.13200
C737        C  0.54059126  0.01829030  0.02336851     0.05300
C738        C  0.50360252  0.00278514  0.02888493    -0.09200
C739        C  0.46702112  0.98902971  0.02291852     0.06100
C740        C  0.46720719  0.99149861  0.01149990    -0.13600
Br741      Br  0.53845705  0.91962886  0.99606558    -0.05600
Br742      Br  0.46403532  0.09388230  0.96973199     0.00000
Br743      Br  0.59100834  0.03656082  0.03146586     0.00400
Br744      Br  0.41631272  0.97516666  0.00333594    -0.04000
Br745      Br  0.54391511  0.92040388  0.96934022     0.00500
Br746      Br  0.47296690  0.09467116  0.99635486    -0.03300
Br747      Br  0.59255109  0.03873293  0.00439053    -0.04100
Br748      Br  0.41627683  0.96769650  0.03038314    -0.00200
C749        C  0.50764591  0.99831532  0.09589962     0.01300
C750        C  0.48648204  0.03033581  0.10224965     0.04100
C751        C  0.49087403  0.03025142  0.11363153    -0.12000
C752        C  0.51504242  0.99747118  0.11881377     0.23400
C753        C  0.53670215  0.96592812  0.11256069    -0.12500
C754        C  0.53331978  0.96639020  0.10115258     0.04800
C755        C  0.51450348  0.99421460  0.13085714     0.27200
C756        C  0.54378492  0.01846594  0.13721409    -0.13200
C757        C  0.54158855  0.01648352  0.14862755     0.05300
C758        C  0.50903693  0.99138326  0.15374757    -0.09200
C759        C  0.47975018  0.96716189  0.14734012     0.06100
C760        C  0.48310937  0.96791815  0.13594594    -0.13600
Br761      Br  0.57101965  0.92202344  0.11973451    -0.05600
Br762      Br  0.44859873  0.07269853  0.09561087     0.00000
Br763      Br  0.58451519  0.04685082  0.15719243     0.00400
Br764      Br  0.44430271  0.93330415  0.12719526    -0.04000
Br765      Br  0.56549023  0.92382847  0.09287602     0.00500
Br766      Br  0.46345883  0.07491214  0.12225658    -0.03300
Br767      Br  0.58649481  0.05480046  0.13024312    -0.04100
Br768      Br  0.43286868  0.93546076  0.15404649    -0.00200
C769        C  0.63945156  0.49750076  0.06301373     0.01300
C770        C  0.66344799  0.52460849  0.05596628     0.04100
C771        C  0.70913921  0.52513957  0.05646374    -0.12000
C772        C  0.73119598  0.49904743  0.06405912     0.23400
C773        C  0.70741074  0.47279326  0.07128062    -0.12500
C774        C  0.66173985  0.47161561  0.07070790     0.04800
C775        C  0.77948748  0.49779492  0.06413976     0.27200
C776        C  0.80158174  0.46830485  0.05737476    -0.13200
C777        C  0.84727523  0.46676128  0.05739429     0.05300
C778        C  0.87138522  0.49477294  0.06422677    -0.09200
C779        C  0.84896579  0.52411188  0.07108108     0.06100
C780        C  0.80323514  0.52591834  0.07092108    -0.13600
Br781      Br  0.73775325  0.43865567  0.08201465    -0.05600
Br782      Br  0.63419601  0.55935486  0.04516730     0.00000
Br783      Br  0.87618737  0.42748287  0.04758833     0.00400
Br784      Br  0.77276746  0.56739064  0.07985814    -0.04000
Br785      Br  0.63012141  0.43537969  0.08078038     0.00500
Br786      Br  0.74196065  0.56116392  0.04663670    -0.03300
Br787      Br  0.76881450  0.43072364  0.04785692    -0.04100
Br788      Br  0.88037643  0.56034551  0.08119221    -0.00200
C789        C  0.13995944  0.49105164  0.06378369     0.01300
C790        C  0.16260160  0.46770176  0.07188285     0.04100
C791        C  0.20826909  0.46532149  0.07162314    -0.12000
C792        C  0.23168555  0.48776735  0.06355866     0.23400
C793        C  0.20923660  0.51155643  0.05557061    -0.12500
C794        C  0.16357809  0.51266152  0.05558090     0.04800
C795        C  0.27994905  0.48745968  0.06359154     0.27200
C796        C  0.30282759  0.51463170  0.07080707    -0.13200
C797        C  0.34849232  0.51547739  0.07065803     0.05300
C798        C  0.37158595  0.49035463  0.06298866    -0.09200
C799        C  0.34854180  0.46378336  0.05561235     0.06100
C800        C  0.30292592  0.46159545  0.05609458    -0.13600
Br801      Br  0.24133031  0.54262814  0.04457012    -0.05600
Br802      Br  0.13150082  0.44104769  0.08374608     0.00000
Br803      Br  0.37913197  0.54990769  0.08129972     0.00400
Br804      Br  0.27162907  0.42353207  0.04639786    -0.04000
Br805      Br  0.13378121  0.54196465  0.04395696     0.00500
Br806      Br  0.23896856  0.43094651  0.08224023    -0.03300
Br807      Br  0.27136730  0.55144346  0.08076498    -0.04100
Br808      Br  0.37889215  0.43287629  0.04426626    -0.00200
C809        C  0.00336935  0.48612726  0.03014705     0.01300
C810        C  0.01645633  0.52231877  0.02369025     0.04100
C811        C  0.01515422  0.51978305  0.01228715    -0.12000
C812        C  0.99793166  0.48292528  0.00714806     0.23400
C813        C  0.98400983  0.44736430  0.01335795    -0.12500
C814        C  0.98809019  0.44805780  0.02474845     0.04800
C815        C  0.99366404  0.48226222  0.99515918     0.27200
C816        C  0.95979643  0.50559053  0.99014477    -0.13200
C817        C  0.95747849  0.50789341  0.97877029     0.05300
C818        C  0.98844075  0.48596814  0.97236651    -0.09200
C819        C  0.02161558  0.46152954  0.97738141     0.06100
C820        C  0.02442515  0.46001565  0.98877061    -0.13600
Br821      Br  0.95813518  0.39799878  0.00610985    -0.05600
Br822      Br  0.03645655  0.57648520  0.02991056     0.00000
Br823      Br  0.91123051  0.54037071  0.97198397     0.00400
Br824      Br  0.07105496  0.42849305  0.99566223    -0.04000
Br825      Br  0.97142598  0.39598458  0.03247117     0.00500
Br826      Br  0.03722110  0.56695719  0.00349046    -0.03300
Br827      Br  0.91667753  0.53453976  0.99891868    -0.04100
Br828      Br  0.06473738  0.43207249  0.96869282    -0.00200
C829        C  0.00564152  0.50140924  0.09716526     0.01300
C830        C  0.03768950  0.52565544  0.10268077     0.04100
C831        C  0.03634162  0.52930817  0.11406257    -0.12000
C832        C  0.00325594  0.50843825  0.11998665     0.23400
C833        C  0.97097208  0.48461751  0.11447531    -0.12500
C834        C  0.97219998  0.48099587  0.10309584     0.04800
C835        C  0.00284549  0.51075070  0.13202862     0.27200
C836        C  0.03061485  0.48375611  0.13812031    -0.13200
C837        C  0.02988198  0.48539034  0.14953628     0.05300
C838        C  0.00035913  0.51311692  0.15493107    -0.09200
C839        C  0.97237296  0.53992347  0.14880030     0.06100
C840        C  0.97440922  0.53948625  0.13738610    -0.13600
Br841      Br  0.92469334  0.45736913  0.12253868    -0.05600
Br842      Br  0.08472216  0.55224770  0.09473848     0.00000
Br843      Br  0.07119042  0.45133104  0.15770148     0.00400
Br844      Br  0.93890396  0.57883419  0.12902614    -0.04000
Br845      Br  0.92685611  0.44954148  0.09563394     0.00500
Br846      Br  0.07965293  0.56311992  0.12159874    -0.03300
Br847      Br  0.07011267  0.44491051  0.13076239    -0.04100
Br848      Br  0.92936465  0.57544518  0.15596128    -0.00200
C849        C  0.86910712  0.99297667  0.06266862     0.01300
C850        C  0.84491022  0.01900660  0.05541733     0.04100
C851        C  0.79922306  0.01909281  0.05586308    -0.12000
C852        C  0.77724938  0.99106406  0.06303773     0.23400
C853        C  0.80128302  0.96411544  0.07006781    -0.12500
C854        C  0.84701472  0.96620120  0.07016442     0.04800
C855        C  0.72887760  0.99033246  0.06322464     0.27200
C856        C  0.70598744  0.01552298  0.07087307    -0.13200
C857        C  0.66024328  0.01582775  0.07086162     0.05300
C858        C  0.63699173  0.99194482  0.06296903    -0.09200
C859        C  0.66000488  0.96584538  0.05547848     0.06100
C860        C  0.70576824  0.96494434  0.05565427    -0.13600
Br861      Br  0.77129331  0.92416270  0.07950332    -0.05600
Br862      Br  0.87405794  0.05295418  0.04444021     0.00000
Br863      Br  0.62958728  0.04674075  0.08215540     0.00400
Br864      Br  0.73715853  0.92909126  0.04548181    -0.04000
Br865      Br  0.87897567  0.93500384  0.08115294     0.00500
Br866      Br  0.76650757  0.05820853  0.04677128    -0.03300
Br867      Br  0.73758287  0.04999200  0.08130330    -0.04100
Br868      Br  0.62926603  0.93238542  0.04467741    -0.00200
C869        C  0.36881313  0.00730443  0.06204519     0.01300
C870        C  0.34695674  0.03586074  0.05488494     0.04100
C871        C  0.30119722  0.03591418  0.05438159    -0.12000
C872        C  0.27699478  0.00705392  0.06086578     0.23400
C873        C  0.29862677  0.97865413  0.06800521    -0.12500
C874        C  0.34422493  0.97928444  0.06875042     0.04800
C875        C  0.22868424  0.00738560  0.06053340     0.27200
C876        C  0.20526130  0.02976231  0.06861412    -0.13200
C877        C  0.15968171  0.02682595  0.06899409     0.05300
C878        C  0.13701126  0.00362413  0.06088826    -0.09200
C879        C  0.16041632  0.98283732  0.05251249     0.06100
C880        C  0.20616156  0.98377058  0.05250204    -0.13600
Br881      Br  0.26537170  0.93866830  0.07675616    -0.05600
Br882      Br  0.37921069  0.07384148  0.04538084     0.00000
Br883      Br  0.12877733  0.05200842  0.08109115     0.00400
Br884      Br  0.23813527  0.95209692  0.04161015    -0.04000
Br885      Br  0.37244070  0.94360339  0.07954367     0.00500
Br886      Br  0.27131123  0.07550114  0.04481033    -0.03300
Br887      Br  0.23598485  0.06439412  0.07917869    -0.04100
Br888      Br  0.12984617  0.95488800  0.04074667    -0.00200
C889        C  0.99439935  0.00770830  0.97053840     0.01300
C890        C  0.02181609  0.97888207  0.97628543     0.04100
C891        C  0.02065738  0.97771759  0.98769838    -0.12000
C892        C  0.99354521  0.00644474  0.99345190     0.23400
C893        C  0.96633848  0.03529946  0.98777486    -0.12500
C894        C  0.96572839  0.03501438  0.97635089     0.04800
C895        C  0.99404306  0.00641092  0.00549520     0.27200
C896        C  0.96516528  0.97965020  0.01128923    -0.13200
C897        C  0.96730660  0.97773569  0.02269193     0.05300
C898        C  0.99766376  0.00359099  0.02837855    -0.09200
C899        C  0.02547981  0.03167052  0.02254255     0.06100
C900        C  0.02406953  0.03249650  0.01112478    -0.13600
Br901      Br  0.93047407  0.07566905  0.99572283    -0.05600
Br902      Br  0.06285795  0.94236235  0.96869585     0.00000
Br903      Br  0.92710859  0.94102203  0.03046570     0.00400
Br904      Br  0.06361593  0.06894477  0.00308659    -0.04000
Br905      Br  0.92325216  0.06977607  0.96877230     0.00500
Br906      Br  0.05658729  0.93706839  0.99555146    -0.03300
Br907      Br  0.92236802  0.94603275  0.00352371    -0.04100
Br908      Br  0.06674212  0.06811965  0.03005282    -0.00200
C909        C  0.00142109  0.99310885  0.15301076     0.01300
C910        C  0.02765074  0.02333279  0.14735383     0.04100
C911        C  0.02785769  0.02378974  0.13592987    -0.12000
C912        C  0.00225848  0.99400024  0.13009637     0.23400
C913        C  0.97552011  0.96443869  0.13567008    -0.12500
C914        C  0.97476529  0.96416475  0.14709082     0.04800
C915        C  0.00320871  0.99388084  0.11806476     0.27200
C916        C  0.97395742  0.02001209  0.11221787    -0.13200
C917        C  0.97394979  0.01909716  0.10081457     0.05300
C918        C  0.00436358  0.99312481  0.09517156    -0.09200
C919        C  0.03386503  0.96704304  0.10106794     0.06100
C920        C  0.03296477  0.96721894  0.11249763    -0.13600
Br921      Br  0.93967484  0.92457164  0.12754647    -0.05600
Br922      Br  0.06487086  0.06326636  0.15509223     0.00000
Br923      Br  0.93021110  0.05157838  0.09302151     0.00400
Br924      Br  0.07267455  0.93128808  0.12063775    -0.04000
Br925      Br  0.93493350  0.92591260  0.15450240     0.00500
Br926      Br  0.06323328  0.06517807  0.12816361    -0.03300
Br927      Br  0.93401682  0.05728023  0.11990019    -0.04100
Br928      Br  0.07694103  0.93253355  0.09362676    -0.00200
C929        C  0.49340750  0.49788755  0.47053617     0.01300
C930        C  0.52032214  0.47000727  0.47670512     0.04100
C931        C  0.51754071  0.46990581  0.48810714    -0.12000
C932        C  0.48830745  0.49784328  0.49343964     0.23400
C933        C  0.46131879  0.52554211  0.48735187    -0.12500
C934        C  0.46370719  0.52557272  0.47593584     0.04800
C935        C  0.48702390  0.49896143  0.50548498     0.27200
C936        C  0.45603063  0.47432764  0.51118843    -0.13200
C937        C  0.45606997  0.47406722  0.52262309     0.05300
C938        C  0.48673868  0.49925294  0.52842447    -0.09200
C939        C  0.51694913  0.52495000  0.52263229     0.06100
C940        C  0.51741256  0.52424948  0.51121505    -0.13600
Br941      Br  0.42151375  0.56390619  0.49475397    -0.05600
Br942      Br  0.56003578  0.43041726  0.46966139     0.00000
Br943      Br  0.41537682  0.43717156  0.53018387     0.00400
Br944      Br  0.55986876  0.55784989  0.50332142    -0.04000
Br945      Br  0.42770627  0.56552975  0.46785814     0.00500
Br946      Br  0.55366935  0.43131010  0.49653049    -0.03300
Br947      Br  0.41386946  0.44053184  0.50324483    -0.04100
Br948      Br  0.55635100  0.56331329  0.53018993    -0.00200
C949        C  0.50969023  0.86322757  0.43690371     0.01300
C950        C  0.53660317  0.83944409  0.42975009     0.04100
C951        C  0.53681042  0.79367572  0.43006963    -0.12000
C952        C  0.50919854  0.77136534  0.43727781     0.23400
C953        C  0.48259982  0.79497084  0.44447184    -0.12500
C954        C  0.48320880  0.84071086  0.44439236     0.04800
C955        C  0.50740661  0.72306391  0.43716626     0.27200
C956        C  0.48169025  0.70138470  0.42940349    -0.13200
C957        C  0.47954825  0.65565427  0.42932385     0.05300
C958        C  0.50242258  0.63134183  0.43718704    -0.09200
C959        C  0.52764570  0.65323960  0.44506551     0.06100
C960        C  0.53065098  0.69887879  0.44493424    -0.13600
Br961      Br  0.44531564  0.76433166  0.45446109    -0.05600
Br962      Br  0.57145248  0.86913100  0.41904732     0.00000
Br963      Br  0.44702289  0.62661245  0.41806276     0.00400
Br964      Br  0.56683012  0.72851477  0.45536469    -0.04000
Br965      Br  0.44931825  0.87219359  0.45498837     0.00500
Br966      Br  0.57506272  0.76121586  0.42067606    -0.03300
Br967      Br  0.44945548  0.73467685  0.41885900    -0.04100
Br968      Br  0.55634606  0.62108780  0.45646331    -0.00200
C969        C  0.50728417  0.13146406  0.43695213     0.01300
C970        C  0.53273538  0.15481873  0.44450753     0.04100
C971        C  0.53260896  0.20057953  0.44442615    -0.12000
C972        C  0.50618019  0.22326872  0.43701714     0.23400
C973        C  0.48046786  0.20008937  0.42954217    -0.12500
C974        C  0.48137729  0.15435372  0.42940951     0.04800
C975        C  0.50512901  0.27155143  0.43712439     0.27200
C976        C  0.47826843  0.29367699  0.44455552    -0.13200
C977        C  0.47696529  0.33942423  0.44461476     0.05300
C978        C  0.50212396  0.36327677  0.43711711    -0.09200
C979        C  0.52896930  0.34098425  0.42966396     0.06100
C980        C  0.53071961  0.29528947  0.42974384    -0.13600
Br981      Br  0.44392477  0.23131911  0.41949083    -0.05600
Br982      Br  0.56592930  0.12443764  0.45541978     0.00000
Br983      Br  0.44254761  0.36919792  0.45539819     0.00400
Br984      Br  0.56843024  0.26495507  0.41978818    -0.04000
Br985      Br  0.44868309  0.12340453  0.41849114     0.00500
Br986      Br  0.56862116  0.23251212  0.45446188    -0.03300
Br987      Br  0.44354634  0.26099075  0.45470942    -0.04100
Br988      Br  0.56211057  0.37273436  0.41898345    -0.00200
C989        C  0.50739895  0.99635014  0.47022156     0.01300
C990        C  0.53315730  0.96656650  0.47612297     0.04100
C991        C  0.53120259  0.96577263  0.48755464    -0.12000
C992        C  0.50334727  0.99443474  0.49313200     0.23400
C993        C  0.47774530  0.02416170  0.48726832    -0.12500
C994        C  0.48000782  0.02545060  0.47586924     0.04800
C995        C  0.50163598  0.99450220  0.50519065     0.27200
C996        C  0.47327517  0.96628822  0.51072375    -0.13200
C997        C  0.47023824  0.96790212  0.52213533     0.05300
C998        C  0.49491836  0.99857160  0.52806373    -0.09200
C999        C  0.52301445  0.02708625  0.52244393     0.06100
C1000       C  0.52679754  0.02453596  0.51107691    -0.13600
Br1001     Br  0.43964593  0.06332993  0.49496012    -0.05600
Br1002     Br  0.56984627  0.92547921  0.46861368     0.00000
Br1003     Br  0.43381748  0.92642146  0.52956277     0.00400
Br1004     Br  0.56633218  0.06240468  0.50345524    -0.04000
Br1005     Br  0.44730994  0.06905564  0.46810826     0.00500
Br1006     Br  0.56657426  0.92543178  0.49563852    -0.03300
Br1007     Br  0.43851314  0.92556168  0.50257679    -0.04100
Br1008     Br  0.55464600  0.07162032  0.53015834    -0.00200
C1009       C  0.99313163  0.49864187  0.47213341     0.01300
C1010       C  0.96800007  0.52959967  0.47783527     0.04100
C1011       C  0.96740695  0.52974748  0.48929386    -0.12000
C1012       C  0.99285422  0.49984330  0.49517491     0.23400
C1013       C  0.01753810  0.46858834  0.48951851    -0.12500
C1014       C  0.01732519  0.46763817  0.47805949     0.04800
C1015       C  0.99376448  0.50114292  0.50730289     0.27200
C1016       C  0.02208877  0.52976559  0.51276166    -0.13200
C1017       C  0.02393448  0.53011038  0.52420793     0.05300
C1018       C  0.99826687  0.50094668  0.53030755    -0.09200
C1019       C  0.96921028  0.47291053  0.52482008     0.06100
C1020       C  0.96679375  0.47331427  0.51338139    -0.13600
Br1021     Br  0.05129693  0.42674082  0.49757070    -0.05600
Br1022     Br  0.93588454  0.57335939  0.47000132     0.00000
Br1023     Br  0.05953278  0.57271630  0.53150644     0.00400
Br1024     Br  0.92648058  0.43569396  0.50594543    -0.04000
Br1025     Br  0.04816467  0.42207131  0.47054614     0.00500
Br1026     Br  0.93121440  0.57051699  0.49701319    -0.03300
Br1027     Br  0.05845274  0.56854024  0.50449406    -0.04100
Br1028     Br  0.93370164  0.43248213  0.53286391    -0.00200
C1029       C  0.99362772  0.63322317  0.43790403     0.01300
C1030       C  0.02178391  0.65774046  0.44459624     0.04100
C1031       C  0.02247376  0.70338273  0.44383375    -0.12000
C1032       C  0.99374551  0.72498831  0.43677457     0.23400
C1033       C  0.96497323  0.70082761  0.43027121    -0.12500
C1034       C  0.96550307  0.65509332  0.43064351     0.04800
C1035       C  0.99334886  0.77323803  0.43639292     0.27200
C1036       C  0.96851038  0.79678896  0.44397358    -0.13200
C1037       C  0.96960549  0.84250412  0.44399865     0.05300
C1038       C  0.99591605  0.86496870  0.43646372    -0.09200
C1039       C  0.02038119  0.84125461  0.42877647     0.06100
C1040       C  0.01870408  0.79551720  0.42868302    -0.13600
Br1041     Br  0.92475152  0.73074721  0.42087518    -0.05600
Br1042     Br  0.05764604  0.62948562  0.45533975     0.00000
Br1043     Br  0.93658718  0.87395555  0.45477167     0.00400
Br1044     Br  0.05066549  0.76308774  0.41791869    -0.04000
Br1045     Br  0.92931605  0.62289163  0.42067778     0.00500
Br1046     Br  0.06284349  0.73674646  0.45245065    -0.03300
Br1047     Br  0.93313785  0.76603038  0.45436522    -0.04100
Br1048     Br  0.05503431  0.87120684  0.41808025    -0.00200
C1049       C  0.99623804  0.36465451  0.43793456     0.01300
C1050       C  0.96473549  0.34036405  0.44371346     0.04100
C1051       C  0.96556081  0.29461338  0.44343311    -0.12000
C1052       C  0.99844193  0.27267461  0.43769206     0.23400
C1053       C  0.02982089  0.29656916  0.43193313    -0.12500
C1054       C  0.02829913  0.34230302  0.43185109     0.04800
C1055       C  0.99976781  0.22437552  0.43761959     0.27200
C1056       C  0.01848803  0.20165252  0.44638740    -0.13200
C1057       C  0.01956225  0.15588318  0.44632776     0.05300
C1058       C  0.00168329  0.13270235  0.43752200    -0.09200
C1059       C  0.98308898  0.15546070  0.42874524     0.06100
C1060       C  0.98225526  0.20117521  0.42877873    -0.13600
Br1061     Br  0.07492512  0.26621846  0.42411616    -0.05600
Br1062     Br  0.92121219  0.36889424  0.45249060     0.00000
Br1063     Br  0.04389116  0.12492053  0.45850889     0.00400
Br1064     Br  0.95715445  0.23221892  0.41670880    -0.04000
Br1065     Br  0.06867921  0.37349393  0.42272162     0.00500
Br1066     Br  0.92145810  0.26157539  0.45089507    -0.03300
Br1067     Br  0.04232864  0.23347105  0.45849952    -0.04100
Br1068     Br  0.95989721  0.12394413  0.41649613    -0.00200
C1069       C  0.00103964  0.99562356  0.47078553     0.01300
C1070       C  0.97079113  0.02048079  0.47685134     0.04100
C1071       C  0.97170711  0.01982106  0.48829918    -0.12000
C1072       C  0.00325521  0.99523274  0.49382780     0.23400
C1073       C  0.03352963  0.97062157  0.48787945    -0.12500
C1074       C  0.03218197  0.97026103  0.47643206     0.04800
C1075       C  0.00509293  0.99587726  0.50591722     0.27200
C1076       C  0.02766175  0.02932499  0.51133225    -0.13200
C1077       C  0.02876400  0.03057406  0.52276601     0.05300
C1078       C  0.00804777  0.99777888  0.52885917    -0.09200
C1079       C  0.98642166  0.96364504  0.52342083     0.06100
C1080       C  0.98449020  0.96303333  0.51199378    -0.13600
Br1081     Br  0.07722030  0.93772590  0.49555166    -0.05600
Br1082     Br  0.92938503  0.05784922  0.46967719     0.00000
Br1083     Br  0.05686581  0.07845102  0.53004565     0.00400
Br1084     Br  0.95356628  0.91722101  0.50461381    -0.04000
Br1085     Br  0.07203185  0.93296094  0.46869726     0.00500
Br1086     Br  0.93000444  0.05311138  0.49653326    -0.03300
Br1087     Br  0.05710390  0.07340680  0.50300457    -0.04100
Br1088     Br  0.96134985  0.91633233  0.53159039    -0.00200
C1089       C  0.49194369  0.51452649  0.27897876     0.01300
C1090       C  0.51760291  0.54416417  0.27299539     0.04100
C1091       C  0.51558154  0.54456981  0.26158886    -0.12000
C1092       C  0.48696937  0.51653492  0.25608232     0.23400
C1093       C  0.46097305  0.48730185  0.26199852    -0.12500
C1094       C  0.46419642  0.48551268  0.27339131     0.04800
C1095       C  0.48671494  0.51597067  0.24402749     0.27200
C1096       C  0.46471084  0.54843855  0.23817966    -0.13200
C1097       C  0.46843087  0.55056730  0.22678229     0.05300
C1098       C  0.49252587  0.51846247  0.22106352    -0.09200
C1099       C  0.51299577  0.48467905  0.22706874     0.06100
C1100       C  0.51083416  0.48426013  0.23847195    -0.13600
Br1101     Br  0.42156873  0.44913491  0.25441290    -0.05600
Br1102     Br  0.55487819  0.58538363  0.28027266     0.00000
Br1103     Br  0.43904616  0.59736563  0.21931661     0.00400
Br1104     Br  0.54201811  0.44065078  0.24665406    -0.04000
Br1105     Br  0.43339520  0.44053578  0.28115031     0.00500
Br1106     Br  0.55292160  0.58280086  0.25338681    -0.03300
Br1107     Br  0.42906230  0.58975327  0.24593182    -0.04100
Br1108     Br  0.54576510  0.43882369  0.22009315    -0.00200
C1109       C  0.50486244  0.50862855  0.34592332     0.01300
C1110       C  0.47371615  0.53095646  0.35227962     0.04100
C1111       C  0.47431960  0.52728780  0.36366836    -0.12000
C1112       C  0.50694890  0.50285643  0.36882775     0.23400
C1113       C  0.53873177  0.48157259  0.36258741    -0.12500
C1114       C  0.53750848  0.48393245  0.35117418     0.04800
C1115       C  0.50811263  0.50013055  0.38085526     0.27200
C1116       C  0.52921668  0.53272290  0.38690664    -0.13200
C1117       C  0.52871255  0.53132694  0.39832012     0.05300
C1118       C  0.50739142  0.49704835  0.40372591    -0.09200
C1119       C  0.48722125  0.46380721  0.39765511     0.06100
C1120       C  0.48756169  0.46539869  0.38623665    -0.13600
Br1121     Br  0.58378937  0.44890748  0.36979534    -0.05600
Br1122     Br  0.43169204  0.56908724  0.34558343     0.00000
Br1123     Br  0.55530170  0.57769281  0.40652120     0.00400
Br1124     Br  0.45994063  0.42007851  0.37790335    -0.04000
Br1125     Br  0.57967234  0.45130532  0.34290779     0.00500
Br1126     Br  0.43024539  0.55551188  0.37230509    -0.03300
Br1127     Br  0.55861739  0.57938151  0.37948875    -0.04100
Br1128     Br  0.46037617  0.41527395  0.40495269    -0.00200
C1129       C  0.48822844  0.64609049  0.31317532     0.01300
C1130       C  0.45823622  0.66781159  0.30638137     0.04100
C1131       C  0.45544424  0.71351413  0.30654792    -0.12000
C1132       C  0.48352899  0.73792317  0.31319655     0.23400
C1133       C  0.51300476  0.71639066  0.32009244    -0.12500
C1134       C  0.51503573  0.67065844  0.32018395     0.04800
C1135       C  0.48331306  0.78624704  0.31264391     0.27200
C1136       C  0.50626884  0.80760790  0.30431382    -0.13200
C1137       C  0.50813504  0.85330834  0.30405836     0.05300
C1138       C  0.48690808  0.87801697  0.31212735    -0.09200
C1139       C  0.46231899  0.85659780  0.32019919     0.06100
C1140       C  0.46072549  0.81083475  0.32047108    -0.13600
Br1141     Br  0.55074984  0.74982971  0.32940205    -0.05600
Br1142     Br  0.42281389  0.63557199  0.29626304     0.00000
Br1143     Br  0.53787136  0.88198511  0.29227346     0.00400
Br1144     Br  0.42764049  0.78150997  0.33156106    -0.04000
Br1145     Br  0.55332763  0.64191418  0.33031024     0.00500
Br1146     Br  0.41322656  0.74309569  0.29764314    -0.03300
Br1147     Br  0.53488900  0.77401093  0.29318221    -0.04100
Br1148     Br  0.43181846  0.88960348  0.33113540    -0.00200
C1149       C  0.50519019  0.14639809  0.31120392     0.01300
C1150       C  0.53911901  0.16877308  0.31661541     0.04100
C1151       C  0.54176871  0.21446637  0.31608902    -0.12000
C1152       C  0.50974960  0.23846645  0.31058179     0.23400
C1153       C  0.47590330  0.21660124  0.30520264    -0.12500
C1154       C  0.47368580  0.17084860  0.30541140     0.04800
C1155       C  0.51007542  0.28682288  0.31101663     0.27200
C1156       C  0.49112755  0.30836149  0.31993860    -0.13200
C1157       C  0.49054987  0.35405610  0.32035897     0.05300
C1158       C  0.50773573  0.37854242  0.31169933    -0.09200
C1159       C  0.52677637  0.35704118  0.30276857     0.06100
C1160       C  0.52850767  0.31126720  0.30250968    -0.13600
Br1161     Br  0.43234100  0.24987824  0.29757794    -0.05600
Br1162     Br  0.58028076  0.13794940  0.32558700     0.00000
Br1163     Br  0.46780318  0.38315308  0.33302846     0.00400
Br1164     Br  0.55595343  0.28183561  0.29051377    -0.04000
Br1165     Br  0.42763075  0.14262005  0.29741362     0.00500
Br1166     Br  0.58921722  0.24476082  0.32297297    -0.03300
Br1167     Br  0.46547722  0.27501315  0.33153655    -0.04100
Br1168     Br  0.54832014  0.39019096  0.29061813    -0.00200
C1169       C  0.49452791  0.00930249  0.27845866     0.01300
C1170       C  0.46729923  0.97950515  0.27300697     0.04100
C1171       C  0.46778370  0.97713786  0.26159475    -0.12000
C1172       C  0.49599773  0.00385052  0.25557492     0.23400
C1173       C  0.52315859  0.03362912  0.26097492    -0.12500
C1174       C  0.52238223  0.03650102  0.27238154     0.04800
C1175       C  0.49711401  0.00053423  0.24354776     0.27200
C1176       C  0.52670637  0.97222408  0.23844018    -0.13200
C1177       C  0.52804854  0.96940104  0.22702734     0.05300
C1178       C  0.49895132  0.99415450  0.22067823    -0.09200
C1179       C  0.46857107  0.02164175  0.22585746     0.06100
C1180       C  0.46835716  0.02550167  0.23723742    -0.13600
Br1181     Br  0.56126963  0.07057353  0.25265606    -0.05600
Br1182     Br  0.43135987  0.93970563  0.28112027     0.00000
Br1183     Br  0.57140107  0.93338207  0.22016443     0.00400
Br1184     Br  0.42915104  0.06554914  0.24425317    -0.04000
Br1185     Br  0.55853711  0.07891231  0.27958569     0.00500
Br1186     Br  0.43000704  0.93706622  0.25412410    -0.03300
Br1187     Br  0.56575044  0.93781806  0.24716323    -0.04100
Br1188     Br  0.42538548  0.05228990  0.21746206    -0.00200
C1189       C  0.50126085  0.01085938  0.34533947     0.01300
C1190       C  0.52165794  0.97594746  0.35073811     0.04100
C1191       C  0.52372848  0.97536861  0.36214825    -0.12000
C1192       C  0.50334230  0.00835111  0.36823752     0.23400
C1193       C  0.48246630  0.04294828  0.36285139    -0.12500
C1194       C  0.48256403  0.04485147  0.35143060     0.04800
C1195       C  0.50418362  0.00653233  0.38029838     0.27200
C1196       C  0.47572045  0.97857870  0.38587877    -0.13200
C1197       C  0.47811773  0.97487711  0.39725488     0.05300
C1198       C  0.50791419  0.00054563  0.40319998    -0.09200
C1199       C  0.53607760  0.02900922  0.39756234     0.06100
C1200       C  0.53444627  0.03157424  0.38615143    -0.13600
Br1201     Br  0.45360824  0.08758941  0.37114279    -0.05600
Br1202     Br  0.54500421  0.92774638  0.34257208     0.00000
Br1203     Br  0.44231236  0.93231053  0.40450701     0.00400
Br1204     Br  0.57363194  0.06955211  0.37844588    -0.04000
Br1205     Br  0.45980121  0.09545588  0.34413914     0.00500
Br1206     Br  0.55510142  0.92975059  0.36949866    -0.03300
Br1207     Br  0.43312455  0.94558145  0.37786215    -0.04100
Br1208     Br  0.57579131  0.06626506  0.40534634    -0.00200
C1209       C  0.00834341  0.51545403  0.27965217     0.01300
C1210       C  0.02187314  0.55424549  0.27457751     0.04100
C1211       C  0.02099454  0.55779802  0.26316129    -0.12000
C1212       C  0.00832085  0.52198965  0.25676095     0.23400
C1213       C  0.99533233  0.48307641  0.26183499    -0.12500
C1214       C  0.99436012  0.48016555  0.27324027     0.04800
C1215       C  0.00809290  0.52497839  0.24469564     0.27200
C1216       C  0.97112015  0.54075924  0.23921857    -0.13200
C1217       C  0.96965016  0.54052628  0.22778400     0.05300
C1218       C  0.00480766  0.52365755  0.22178243    -0.09200
C1219       C  0.04194449  0.50826263  0.22725709     0.06100
C1220       C  0.04386792  0.50963663  0.23867449    -0.13600
Br1221     Br  0.97875375  0.43376457  0.25308524    -0.05600
Br1222     Br  0.03992099  0.60310116  0.28329462     0.00000
Br1223     Br  0.91852218  0.56118159  0.22035287     0.00400
Br1224     Br  0.09554814  0.49064694  0.24612022    -0.04000
Br1225     Br  0.97381312  0.42772020  0.28007452     0.00500
Br1226     Br  0.03596639  0.61194706  0.25624648    -0.03300
Br1227     Br  0.92218271  0.56183966  0.24744011    -0.04100
Br1228     Br  0.09048286  0.48577169  0.21909229    -0.00200
C1229       C  0.99794709  0.49828958  0.34668826     0.01300
C1230       C  0.02614190  0.47017543  0.35243545     0.04100
C1231       C  0.02430650  0.46792337  0.36387671    -0.12000
C1232       C  0.99418726  0.49341883  0.36968359     0.23400
C1233       C  0.96455836  0.51966608  0.36396095    -0.12500
C1234       C  0.96645649  0.52233349  0.35254241     0.04800
C1235       C  0.99481708  0.49425701  0.38180968     0.27200
C1236       C  0.97291518  0.46217125  0.38786136    -0.13200
C1237       C  0.97375670  0.46326931  0.39931242     0.05300
C1238       C  0.99561848  0.49710991  0.40481267    -0.09200
C1239       C  0.01696466  0.52958395  0.39874005     0.06100
C1240       C  0.01678025  0.52797462  0.38729392    -0.13600
Br1241     Br  0.92129193  0.55210424  0.37188746    -0.05600
Br1242     Br  0.06576601  0.43265355  0.34469557     0.00000
Br1243     Br  0.94650447  0.41718703  0.40746153     0.00400
Br1244     Br  0.04599962  0.57246274  0.37903095    -0.04000
Br1245     Br  0.92677533  0.56078760  0.34511643     0.00500
Br1246     Br  0.06284187  0.42960475  0.37167084    -0.03300
Br1247     Br  0.94106191  0.41720158  0.38041670    -0.04100
Br1248     Br  0.04451177  0.57767120  0.40605990    -0.00200
C1249       C  0.00003253  0.64196491  0.31447661     0.01300
C1250       C  0.96502931  0.66463700  0.30952001     0.04100
C1251       C  0.96332285  0.71035334  0.30984729    -0.12000
C1252       C  0.99699458  0.73412993  0.31473056     0.23400
C1253       C  0.03174772  0.71220636  0.31969136    -0.12500
C1254       C  0.03341971  0.66641871  0.31961559     0.04800
C1255       C  0.99707602  0.78233204  0.31406929     0.27200
C1256       C  0.02083528  0.80312246  0.30579486    -0.13200
C1257       C  0.02093040  0.84872413  0.30504076     0.05300
C1258       C  0.99641023  0.87376159  0.31243329    -0.09200
C1259       C  0.97218911  0.85285578  0.32064790     0.06100
C1260       C  0.97305601  0.80727535  0.32154510    -0.13600
Br1261     Br  0.07708310  0.74562891  0.32661976    -0.05600
Br1262     Br  0.92052209  0.63455870  0.30139296     0.00000
Br1263     Br  0.05342134  0.87654982  0.29358099     0.00400
Br1264     Br  0.94195361  0.77883659  0.33311988    -0.04000
Br1265     Br  0.08170634  0.63858301  0.32683453     0.00500
Br1266     Br  0.91493275  0.74105419  0.30345529    -0.03300
Br1267     Br  0.05302736  0.76879944  0.29543541    -0.04100
Br1268     Br  0.93908535  0.88648786  0.33099368    -0.00200
C1269       C  0.00823371  0.37334888  0.31265455     0.01300
C1270       C  0.03430637  0.34944744  0.30535158     0.04100
C1271       C  0.03423626  0.30370156  0.30568951    -0.12000
C1272       C  0.00765383  0.28165763  0.31318188     0.23400
C1273       C  0.98253238  0.30540980  0.32066025    -0.12500
C1274       C  0.98306077  0.35110997  0.32046541     0.04800
C1275       C  0.00526386  0.23346653  0.31298607     0.27200
C1276       C  0.97294253  0.21270730  0.30680105    -0.13200
C1277       C  0.97153446  0.16703093  0.30618324     0.05300
C1278       C  0.00181778  0.14164539  0.31207691    -0.09200
C1279       C  0.03339461  0.16284295  0.31857108     0.06100
C1280       C  0.03543718  0.20853470  0.31886134    -0.13600
Br1281     Br  0.94754512  0.27505608  0.33119939    -0.05600
Br1282     Br  0.06863182  0.37891939  0.29452944     0.00000
Br1283     Br  0.92933234  0.14016073  0.29672224     0.00400
Br1284     Br  0.07953430  0.23741516  0.32734463    -0.04000
Br1285     Br  0.95094651  0.38306867  0.33132067     0.00500
Br1286     Br  0.07051488  0.27083605  0.29590214    -0.03300
Br1287     Br  0.93056671  0.24736605  0.29915466    -0.04100
Br1288     Br  0.07266686  0.13008474  0.32767175    -0.00200
C1289       C  0.00037548  0.00324848  0.27788571     0.01300
C1290       C  0.98094896  0.96778564  0.27246373     0.04100
C1291       C  0.98465403  0.96370300  0.26110021    -0.12000
C1292       C  0.00627898  0.99584904  0.25501230     0.23400
C1293       C  0.02535297  0.03150744  0.26040044    -0.12500
C1294       C  0.02243868  0.03517950  0.27179412     0.04800
C1295       C  0.00613854  0.99366173  0.24291307     0.27200
C1296       C  0.04255467  0.97792067  0.23717413    -0.13200
C1297       C  0.04209194  0.97662337  0.22572148     0.05300
C1298       C  0.00483059  0.99006960  0.21997695    -0.09200
C1299       C  0.96826956  0.00518763  0.22571852     0.06100
C1300       C  0.96901413  0.00723693  0.23713194    -0.13600
Br1301     Br  0.05521537  0.07547997  0.25212027    -0.05600
Br1302     Br  0.94946962  0.92440936  0.28056089     0.00000
Br1303     Br  0.09320220  0.95852916  0.21786521     0.00400
Br1304     Br  0.91903984  0.02871964  0.24489859    -0.04000
Br1305     Br  0.04615855  0.08554001  0.27900459     0.00500
Br1306     Br  0.96073964  0.91366653  0.25378845    -0.03300
Br1307     Br  0.09283975  0.95786695  0.24502896    -0.04100
Br1308     Br  0.91660186  0.02204715  0.21792650    -0.00200
C1309       C  0.99785961  0.00607674  0.34507278     0.01300
C1310       C  0.01873396  0.97177496  0.35062548     0.04100
C1311       C  0.01911294  0.97079254  0.36207380    -0.12000
C1312       C  0.99923448  0.00437129  0.36807069     0.23400
C1313       C  0.97875374  0.03883516  0.36253924    -0.12500
C1314       C  0.97727322  0.03926532  0.35109196     0.04800
C1315       C  0.99935952  0.00323596  0.38019220     0.27200
C1316       C  0.96502358  0.98329045  0.38584217    -0.13200
C1317       C  0.96542224  0.98131922  0.39729239     0.05300
C1318       C  0.99899896  0.00190513  0.40328612    -0.09200
C1319       C  0.03264749  0.02330694  0.39751055     0.06100
C1320       C  0.03349340  0.02253015  0.38605524    -0.13600
Br1321     Br  0.95363529  0.08598212  0.37072623    -0.05600
Br1322     Br  0.04504297  0.92481648  0.34257194     0.00000
Br1323     Br  0.92091400  0.94781443  0.40449386     0.00400
Br1324     Br  0.08160574  0.04782680  0.37827076    -0.04000
Br1325     Br  0.94782215  0.08598280  0.34368589     0.00500
Br1326     Br  0.04695512  0.92346820  0.36960896    -0.03300
Br1327     Br  0.91720747  0.95879374  0.37776749    -0.04100
Br1328     Br  0.07633237  0.05677076  0.40504275    -0.00200
C1329       C  0.48276301  0.49208615  0.84482066     0.01300
C1330       C  0.44990943  0.47017330  0.85063719     0.04100
C1331       C  0.45042397  0.47011183  0.86208056    -0.12000
C1332       C  0.48376773  0.49179320  0.86774754     0.23400
C1333       C  0.51691914  0.51302999  0.86194782    -0.12500
C1334       C  0.51643086  0.51327767  0.85053119     0.04800
C1335       C  0.48356324  0.49328925  0.87981946     0.27200
C1336       C  0.46569254  0.52928914  0.88521222    -0.13200
C1337       C  0.46674319  0.53188740  0.89664535     0.05300
C1338       C  0.48431100  0.49714492  0.90292325    -0.09200
C1339       C  0.50215180  0.46073930  0.89728332     0.06100
C1340       C  0.50238861  0.45949377  0.88583604    -0.13600
Br1341     Br  0.56304029  0.54185020  0.86972759    -0.05600
Br1342     Br  0.40286693  0.44222269  0.84299358     0.00000
Br1343     Br  0.44333490  0.58388064  0.90320659     0.00400
Br1344     Br  0.52966962  0.41185022  0.87819555    -0.04000
Br1345     Br  0.56302635  0.54147695  0.84276369     0.00500
Br1346     Br  0.40510236  0.44103337  0.87006670    -0.03300
Br1347     Br  0.43975298  0.57527456  0.87670537    -0.04100
Br1348     Br  0.52819955  0.41211152  0.90476407    -0.00200
C1349       C  0.50362197  0.01726260  0.84526303     0.01300
C1350       C  0.47155901  0.04196690  0.85070724     0.04100
C1351       C  0.47043391  0.04309562  0.86216570    -0.12000
C1352       C  0.50011745  0.01826178  0.86827545     0.23400
C1353       C  0.53256778  0.99428557  0.86286952    -0.12500
C1354       C  0.53476679  0.99431668  0.85143760     0.04800
C1355       C  0.49782026  0.01774510  0.88039044     0.27200
C1356       C  0.52431748  0.04580686  0.88651144    -0.13200
C1357       C  0.52456657  0.04342233  0.89794345     0.05300
C1358       C  0.49679822  0.01401215  0.90343414    -0.09200
C1359       C  0.46917293  0.98681932  0.89724729     0.06100
C1360       C  0.47021144  0.98830232  0.88578742    -0.13600
Br1361     Br  0.57449297  0.96182632  0.87120865    -0.05600
Br1362     Br  0.42759932  0.07258273  0.84257355     0.00000
Br1363     Br  0.56554257  0.07871755  0.90589395     0.00400
Br1364     Br  0.43390212  0.94983593  0.87738676    -0.04000
Br1365     Br  0.58230926  0.96502001  0.84429956     0.00500
Br1366     Br  0.42889974  0.07942659  0.86958345    -0.03300
Br1367     Br  0.56039989  0.08761315  0.87911213    -0.04100
Br1368     Br  0.42817791  0.94885007  0.90434861    -0.00200
C1369       C  0.85136897  0.48636062  0.81462615     0.01300
C1370       C  0.82679590  0.51592268  0.82094077     0.04100
C1371       C  0.78109688  0.51551901  0.82043618    -0.12000
C1372       C  0.75944846  0.48480519  0.81392300     0.23400
C1373       C  0.78364933  0.45469674  0.80780307    -0.12500
C1374       C  0.82939923  0.45567044  0.80804578     0.04800
C1375       C  0.71117573  0.48495939  0.81332209     0.27200
C1376       C  0.68647903  0.46039666  0.82073674    -0.13200
C1377       C  0.64074541  0.46156577  0.82033463     0.05300
C1378       C  0.61946189  0.48773270  0.81255827    -0.09200
C1379       C  0.64434271  0.51167388  0.80501245     0.06100
C1380       C  0.69000482  0.51029081  0.80541208    -0.13600
Br1381     Br  0.75370452  0.41267280  0.79890330    -0.05600
Br1382     Br  0.85508472  0.55583060  0.83075902     0.00000
Br1383     Br  0.60752371  0.42866158  0.83076446     0.00400
Br1384     Br  0.72391327  0.54324475  0.79514481    -0.04000
Br1385     Br  0.86138779  0.41642174  0.79877752     0.00500
Br1386     Br  0.74771380  0.55759981  0.82852464    -0.03300
Br1387     Br  0.71562749  0.42573030  0.83155174    -0.04100
Br1388     Br  0.61605907  0.54486994  0.79374937    -0.00200
C1389       C  0.35184405  0.50462043  0.81011776     0.01300
C1390       C  0.32912421  0.52634132  0.81846986     0.04100
C1391       C  0.28337865  0.52582021  0.81867074    -0.12000
C1392       C  0.25998679  0.50323660  0.81060854     0.23400
C1393       C  0.28258644  0.48249353  0.80210483    -0.12500
C1394       C  0.32833550  0.48350406  0.80180594     0.04800
C1395       C  0.21174182  0.50024029  0.81130341     0.27200
C1396       C  0.19233930  0.47003001  0.81839092    -0.13200
C1397       C  0.14678697  0.46828991  0.81947116     0.05300
C1398       C  0.12004899  0.49594870  0.81316776    -0.09200
C1399       C  0.13974382  0.52516374  0.80577140     0.06100
C1400       C  0.18532501  0.52785096  0.80502784    -0.13600
Br1401     Br  0.25071789  0.45193710  0.79098694    -0.05600
Br1402     Br  0.36047784  0.55474013  0.83003411     0.00000
Br1403     Br  0.12184890  0.42922903  0.83002721     0.00400
Br1404     Br  0.21185173  0.56958908  0.79541289    -0.04000
Br1405     Br  0.35876081  0.45732472  0.78976359     0.00500
Br1406     Br  0.25244346  0.55530410  0.83013457    -0.03300
Br1407     Br  0.22865904  0.43090717  0.82661778    -0.04100
Br1408     Br  0.10479930  0.55980178  0.79602760    -0.00200
C1409       C  0.98483805  0.49967986  0.84777881     0.01300
C1410       C  0.02056738  0.51745717  0.85336210     0.04100
C1411       C  0.01964662  0.52064754  0.86474244    -0.12000
C1412       C  0.98224573  0.50782937  0.87048687     0.23400
C1413       C  0.94584612  0.49178498  0.86484995    -0.12500
C1414       C  0.94763514  0.48643808  0.85353644     0.04800
C1415       C  0.98264963  0.50690779  0.88249810     0.27200
C1416       C  0.99216852  0.46777928  0.88780961    -0.13200
C1417       C  0.99229245  0.46572348  0.89920418     0.05300
C1418       C  0.98237309  0.50334324  0.90550890    -0.09200
C1419       C  0.97295811  0.54296641  0.89996282     0.06100
C1420       C  0.97320783  0.54442805  0.88852367    -0.13600
Br1421     Br  0.89379438  0.47681596  0.87271765    -0.05600
Br1422     Br  0.07148044  0.53552851  0.84543608     0.00000
Br1423     Br  0.00798633  0.41052507  0.90562851     0.00400
Br1424     Br  0.96017565  0.59780604  0.88091677    -0.04000
Br1425     Br  0.89931711  0.46054686  0.84596519     0.00500
Br1426     Br  0.07000963  0.54107982  0.87252300    -0.03300
Br1427     Br  0.00529850  0.41666223  0.87924384    -0.04100
Br1428     Br  0.95840514  0.59610033  0.90753153    -0.00200
C1429       C  0.87303603  0.02331216  0.81386835     0.01300
C1430       C  0.85004244  0.05143766  0.80681510     0.04100
C1431       C  0.80423095  0.05227646  0.80694686    -0.12000
C1432       C  0.78093191  0.02514829  0.81407051     0.23400
C1433       C  0.80365637  0.99813414  0.82133698    -0.12500
C1434       C  0.84943071  0.99765691  0.82136624     0.04800
C1435       C  0.73255952  0.02347941  0.81354572     0.27200
C1436       C  0.70705090  0.04974739  0.82041778    -0.13200
C1437       C  0.66130145  0.04794922  0.81984637     0.05300
C1438       C  0.64070093  0.01907998  0.81252560    -0.09200
C1439       C  0.66648747  0.99292414  0.80563110     0.06100
C1440       C  0.71212478  0.99550329  0.80607579    -0.13600
Br1441     Br  0.77174350  0.96081636  0.83106432    -0.05600
Br1442     Br  0.88050619  0.08752884  0.79652395     0.00000
Br1443     Br  0.62722718  0.08396999  0.82945639     0.00400
Br1444     Br  0.74709587  0.96107069  0.79632706    -0.04000
Br1445     Br  0.87942029  0.96332754  0.83214941     0.00500
Br1446     Br  0.77283433  0.08952407  0.79709367    -0.03300
Br1447     Br  0.73511333  0.08798007  0.83066083    -0.04100
Br1448     Br  0.63965020  0.95467059  0.79517838    -0.00200
C1449       C  0.14091297  0.99803542  0.81277657     0.01300
C1450       C  0.16229549  0.96401428  0.80713371     0.04100
C1451       C  0.20805006  0.96245555  0.80681843    -0.12000
C1452       C  0.23274536  0.99394191  0.81234667     0.23400
C1453       C  0.21169663  0.02645256  0.81840843    -0.12500
C1454       C  0.16607358  0.02858643  0.81864993     0.04800
C1455       C  0.28095604  0.99378665  0.81166231     0.27200
C1456       C  0.30569961  0.96973724  0.81915625    -0.13200
C1457       C  0.35137942  0.97229360  0.81901383     0.05300
C1458       C  0.37266051  0.99918469  0.81136287    -0.09200
C1459       C  0.34759833  0.02308459  0.80381480     0.06100
C1460       C  0.30197726  0.02006066  0.80393195    -0.13600
Br1461     Br  0.24592215  0.06828479  0.82636864    -0.05600
Br1462     Br  0.12980566  0.91979542  0.79951664     0.00000
Br1463     Br  0.38419470  0.94124378  0.82989067     0.00400
Br1464     Br  0.26775002  0.05228998  0.79356685    -0.04000
Br1465     Br  0.13872863  0.07219309  0.82764189     0.00500
Br1466     Br  0.23732181  0.91781207  0.79859531    -0.03300
Br1467     Br  0.27658160  0.93434902  0.82983627    -0.04100
Br1468     Br  0.37524980  0.05955984  0.79310759    -0.00200
C1469       C  0.01268163  0.02013795  0.84591075     0.01300
C1470       C  0.98102183  0.04344712  0.85176932     0.04100
C1471       C  0.98126031  0.04259756  0.86318602    -0.12000
C1472       C  0.01363507  0.01920829  0.86877202     0.23400
C1473       C  0.04653331  0.99769041  0.86292087    -0.12500
C1474       C  0.04609080  0.99820157  0.85150195     0.04800
C1475       C  0.01275994  0.01725490  0.88080396     0.27200
C1476       C  0.03754254  0.04672772  0.88695553    -0.13200
C1477       C  0.03497768  0.04640384  0.89836729     0.05300
C1478       C  0.00746408  0.01639886  0.90369829    -0.09200
C1479       C  0.98283948  0.98666323  0.89746001     0.06100
C1480       C  0.98586863  0.98689740  0.88606468    -0.13600
Br1481     Br  0.09201615  0.96743384  0.87058488    -0.05600
Br1482     Br  0.93666586  0.07565342  0.84418225     0.00000
Br1483     Br  0.07071540  0.08620685  0.90655631     0.00400
Br1484     Br  0.95310074  0.94561613  0.87756629    -0.04000
Br1485     Br  0.09246536  0.97067959  0.84350694     0.00500
Br1486     Br  0.93683106  0.07283770  0.87124140    -0.03300
Br1487     Br  0.07532046  0.08728113  0.87964076    -0.04100
Br1488     Br  0.94264594  0.94713597  0.90434965    -0.00200
C1489       C  0.49850753  0.50067216  0.77807207     0.01300
C1490       C  0.52626874  0.46977501  0.77313827     0.04100
C1491       C  0.53034996  0.46824130  0.76178234    -0.12000
C1492       C  0.50753468  0.49798805  0.75526481     0.23400
C1493       C  0.48185375  0.53044357  0.76013177    -0.12500
C1494       C  0.47735930  0.53196311  0.77151207     0.04800
C1495       C  0.50897355  0.49345973  0.74327528     0.27200
C1496       C  0.54410229  0.51022604  0.73734482    -0.13200
C1497       C  0.54712824  0.50280622  0.72607766     0.05300
C1498       C  0.51277221  0.48160425  0.72045568    -0.09200
C1499       C  0.47804498  0.46391345  0.72661875     0.06100
C1500       C  0.47647439  0.46962469  0.73794564    -0.13600
Br1501     Br  0.45219682  0.57216913  0.75108882    -0.05600
Br1502     Br  0.56104113  0.43080208  0.78183933     0.00000
Br1503     Br  0.59967754  0.52082597  0.71885670     0.00400
Br1504     Br  0.42973248  0.44455249  0.74633005    -0.04000
Br1505     Br  0.44079663  0.57609329  0.77789117     0.00500
Br1506     Br  0.56673434  0.42479649  0.75504792    -0.03300
Br1507     Br  0.58761403  0.54431637  0.74476790    -0.04100
Br1508     Br  0.43362334  0.42866170  0.71997170    -0.00200
C1509       C  0.50013178  0.49067642  0.65334708     0.01300
C1510       C  0.47247719  0.46274347  0.64742433     0.04100
C1511       C  0.47030636  0.46580795  0.63603086    -0.12000
C1512       C  0.49604417  0.49638412  0.63047130     0.23400
C1513       C  0.52339241  0.52449771  0.63635557    -0.12500
C1514       C  0.52513020  0.52200495  0.64776412     0.04800
C1515       C  0.49516572  0.49807875  0.61840836     0.27200
C1516       C  0.52111976  0.46925926  0.61235381    -0.13200
C1517       C  0.51978527  0.46990702  0.60093256     0.05300
C1518       C  0.49244608  0.49964372  0.59545597    -0.09200
C1519       C  0.46645568  0.52861220  0.60157359     0.06100
C1520       C  0.46806853  0.52792909  0.61300884    -0.13600
Br1521     Br  0.55866075  0.56624807  0.62870581    -0.05600
Br1522     Br  0.43898975  0.41869842  0.65479641     0.00000
Br1523     Br  0.55383612  0.42803923  0.59291873     0.00400
Br1524     Br  0.43355156  0.56820276  0.62136537    -0.04000
Br1525     Br  0.56002479  0.56328116  0.65572046     0.00500
Br1526     Br  0.43243129  0.42775992  0.62794254    -0.03300
Br1527     Br  0.55848649  0.42871234  0.61981195    -0.04100
Br1528     Br  0.42968550  0.57056372  0.59440700    -0.00200
C1529       C  0.50717623  0.84927732  0.68725902     0.01300
C1530       C  0.48328717  0.82683302  0.69527924     0.04100
C1531       C  0.48407325  0.78112204  0.69562725    -0.12000
C1532       C  0.50862865  0.75763748  0.68797882     0.23400
C1533       C  0.53268792  0.77986181  0.68001566    -0.12500
C1534       C  0.53195737  0.82554755  0.67962855     0.04800
C1535       C  0.50836363  0.70944125  0.68809148     0.27200
C1536       C  0.54121599  0.68648868  0.69355548    -0.13200
C1537       C  0.54160809  0.64074922  0.69339748     0.05300
C1538       C  0.50931934  0.61756159  0.68759864    -0.09200
C1539       C  0.47693699  0.64104447  0.68191631     0.06100
C1540       C  0.47602794  0.68670849  0.68237979    -0.13600
Br1541     Br  0.56630650  0.74727741  0.66957770    -0.05600
Br1542     Br  0.45087110  0.85843994  0.70612213     0.00000
Br1543     Br  0.58600366  0.61086107  0.70148458     0.00400
Br1544     Br  0.43046988  0.71860221  0.67515272    -0.04000
Br1545     Br  0.56324619  0.85516325  0.66824658     0.00500
Br1546     Br  0.45167956  0.75032558  0.70659432    -0.03300
Br1547     Br  0.58564165  0.71815212  0.70129340    -0.04100
Br1548     Br  0.43550234  0.61159545  0.67270886    -0.00200
C1549       C  0.50901672  0.11692826  0.68572732     0.01300
C1550       C  0.48564683  0.13926944  0.67760346     0.04100
C1551       C  0.48592432  0.18496671  0.67733726    -0.12000
C1552       C  0.50984470  0.20851382  0.68510434     0.23400
C1553       C  0.53408475  0.18630334  0.69304385    -0.12500
C1554       C  0.53354381  0.14060926  0.69340235     0.04800
C1555       C  0.50836932  0.25670958  0.68511037     0.27200
C1556       C  0.53919388  0.28068457  0.67921615    -0.13200
C1557       C  0.53727455  0.32641266  0.67908680     0.05300
C1558       C  0.50488317  0.34870192  0.68510042    -0.09200
C1559       C  0.47308975  0.32404579  0.69073508     0.06100
C1560       C  0.47537205  0.27835277  0.69083459    -0.13600
Br1561     Br  0.56780763  0.21879408  0.70345184    -0.05600
Br1562     Br  0.45495314  0.10745249  0.66647992     0.00000
Br1563     Br  0.57751884  0.35750633  0.66989247     0.00400
Br1564     Br  0.43377043  0.24479426  0.69905168    -0.04000
Br1565     Br  0.56489052  0.11081813  0.70475179     0.00500
Br1566     Br  0.45367361  0.21564514  0.66631590    -0.03300
Br1567     Br  0.58428465  0.25036283  0.67139325    -0.04100
Br1568     Br  0.42614048  0.35144078  0.69849941    -0.00200
C1569       C  0.50758824  0.98818078  0.72010797     0.01300
C1570       C  0.52711446  0.95517730  0.72637831     0.04100
C1571       C  0.52621615  0.95747757  0.73780973    -0.12000
C1572       C  0.50698479  0.99337571  0.74305446     0.23400
C1573       C  0.48760927  0.02645534  0.73679849    -0.12500
C1574       C  0.48729456  0.02356312  0.72537358     0.04800
C1575       C  0.50707119  0.99616117  0.75514740     0.27200
C1576       C  0.47325393  0.97710944  0.76120209    -0.13200
C1577       C  0.47404152  0.97851764  0.77264991     0.05300
C1578       C  0.50795939  0.00031972  0.77811905    -0.09200
C1579       C  0.54166756  0.01956184  0.77203780     0.06100
C1580       C  0.54143063  0.01710444  0.76060326    -0.13600
Br1581     Br  0.46159462  0.07580586  0.74393500    -0.05600
Br1582     Br  0.55345243  0.90576534  0.71933414     0.00000
Br1583     Br  0.42809777  0.95120861  0.78080602     0.00400
Br1584     Br  0.58840862  0.04199630  0.75234328    -0.04000
Br1585     Br  0.45984710  0.06877953  0.71694967     0.00500
Br1586     Br  0.55056338  0.91104843  0.74636952    -0.03300
Br1587     Br  0.42565717  0.94948556  0.75371861    -0.04100
Br1588     Br  0.58929160  0.04762181  0.77939513    -0.00200
C1589       C  0.50459520  0.98361242  0.65298847     0.01300
C1590       C  0.47631913  0.95581713  0.64717854     0.04100
C1591       C  0.47416048  0.95802464  0.63576745    -0.12000
C1592       C  0.50033664  0.98768030  0.63004472     0.23400
C1593       C  0.52853870  0.01546408  0.63578547    -0.12500
C1594       C  0.53041480  0.01377358  0.64721553     0.04800
C1595       C  0.49762636  0.98991956  0.61798648     0.27200
C1596       C  0.52097114  0.96012137  0.61155810    -0.13200
C1597       C  0.51745444  0.96139961  0.60016637     0.05300
C1598       C  0.49171140  0.99352099  0.59508842    -0.09200
C1599       C  0.46806423  0.02315891  0.60154521     0.06100
C1600       C  0.47061972  0.02094617  0.61296133    -0.13600
Br1601     Br  0.56418374  0.05628104  0.62792699    -0.05600
Br1602     Br  0.44109842  0.91363664  0.65471550     0.00000
Br1603     Br  0.54585596  0.91720536  0.59157552     0.00400
Br1604     Br  0.43681369  0.06008139  0.62180911    -0.04000
Br1605     Br  0.56603719  0.05524973  0.65491154     0.00500
Br1606     Br  0.43494474  0.92069412  0.62786393    -0.03300
Br1607     Br  0.55763264  0.91734147  0.61841876    -0.04100
Br1608     Br  0.43357195  0.06802942  0.59482661    -0.00200
C1609       C  0.98649477  0.48841600  0.72331605     0.01300
C1610       C  0.95907469  0.45863687  0.72876997     0.04100
C1611       C  0.95976607  0.45596385  0.74019646    -0.12000
C1612       C  0.98558530  0.48478421  0.74629057     0.23400
C1613       C  0.01117083  0.51598483  0.74092882    -0.12500
C1614       C  0.01208449  0.51752426  0.72950173     0.04800
C1615       C  0.98471340  0.48351887  0.75836210     0.27200
C1616       C  0.95069902  0.50407732  0.76404548    -0.13200
C1617       C  0.95056760  0.50447398  0.77546224     0.05300
C1618       C  0.98476137  0.48476793  0.78125968    -0.09200
C1619       C  0.01899240  0.46447463  0.77559750     0.06100
C1620       C  0.01868833  0.46340607  0.76416843    -0.13600
Br1621     Br  0.04464875  0.55696565  0.74935650    -0.05600
Br1622     Br  0.92047514  0.42101032  0.72076602     0.00000
Br1623     Br  0.90301213  0.53139958  0.78316958     0.00400
Br1624     Br  0.06514511  0.43502322  0.75642799    -0.04000
Br1625     Br  0.04641934  0.56172980  0.72245039     0.00500
Br1626     Br  0.92625330  0.41202179  0.74759171    -0.03300
Br1627     Br  0.90469234  0.53252577  0.75615693    -0.04100
Br1628     Br  0.06789138  0.44102323  0.78347029    -0.00200
C1629       C  0.00456699  0.49028188  0.65583101     0.01300
C1630       C  0.96816661  0.47862296  0.64927237     0.04100
C1631       C  0.97064632  0.48066807  0.63783373    -0.12000
C1632       C  0.00910019  0.49391575  0.63266566     0.23400
C1633       C  0.04546074  0.50498340  0.63898818    -0.12500
C1634       C  0.04353449  0.50320092  0.65045094     0.04800
C1635       C  0.01106387  0.49618230  0.62053903     0.27200
C1636       C  0.02961214  0.46186096  0.61451551    -0.13200
C1637       C  0.02995155  0.46326322  0.60305971     0.05300
C1638       C  0.01131713  0.49881135  0.59751674    -0.09200
C1639       C  0.99250339  0.53301605  0.60355157     0.06100
C1640       C  0.99285342  0.53193215  0.61500429    -0.13600
Br1641     Br  0.09805878  0.52329151  0.63176847    -0.05600
Br1642     Br  0.91427270  0.45795162  0.65546248     0.00000
Br1643     Br  0.05328951  0.41495444  0.59494927     0.00400
Br1644     Br  0.96806126  0.57932332  0.62318507    -0.04000
Br1645     Br  0.09515926  0.52001602  0.65834578     0.00500
Br1646     Br  0.92102219  0.46511998  0.62903584    -0.03300
Br1647     Br  0.05340934  0.41226891  0.62201077    -0.04100
Br1648     Br  0.96652591  0.58175503  0.59614000    -0.00200
C1649       C  0.00462520  0.85335489  0.68981270     0.01300
C1650       C  0.97062678  0.82895942  0.68499757     0.04100
C1651       C  0.96952035  0.78349263  0.68602015    -0.12000
C1652       C  0.00221307  0.76173127  0.69180238     0.23400
C1653       C  0.03570624  0.78541199  0.69678907    -0.12500
C1654       C  0.03714873  0.83102770  0.69582793     0.04800
C1655       C  0.00264855  0.71359752  0.69186822     0.27200
C1656       C  0.97870491  0.69033959  0.69967880    -0.13200
C1657       C  0.97596030  0.64474291  0.69902855     0.05300
C1658       C  0.99731541  0.62236489  0.69056374    -0.09200
C1659       C  0.02100404  0.64586103  0.68273115     0.06100
C1660       C  0.02408603  0.69128844  0.68346023    -0.13600
Br1661     Br  0.07973740  0.75475911  0.70490136    -0.05600
Br1662     Br  0.92602276  0.85616511  0.67638459     0.00000
Br1663     Br  0.94349096  0.61309614  0.70983918     0.00400
Br1664     Br  0.05700328  0.72340770  0.67281347    -0.04000
Br1665     Br  0.08323063  0.86186661  0.70318590     0.00500
Br1666     Br  0.92363809  0.75019191  0.67926129    -0.03300
Br1667     Br  0.94955819  0.72123475  0.71119060    -0.04100
Br1668     Br  0.04639305  0.61636806  0.67048345    -0.00200
C1669       C  0.99667282  0.35480368  0.68963244     0.01300
C1670       C  0.98273628  0.33148461  0.68041882     0.04100
C1671       C  0.98561878  0.28585916  0.68021410    -0.12000
C1672       C  0.00332928  0.26332464  0.68912451     0.23400
C1673       C  0.01748199  0.28658847  0.69833197    -0.12500
C1674       C  0.01370892  0.33218400  0.69863611     0.04800
C1675       C  0.00536009  0.21504321  0.68895664     0.27200
C1676       C  0.97207780  0.19078173  0.69383312    -0.13200
C1677       C  0.97297000  0.14504317  0.69354007     0.05300
C1678       C  0.00747716  0.12282329  0.68819694    -0.09200
C1679       C  0.04114473  0.14773674  0.68339805     0.06100
C1680       C  0.03984342  0.19354711  0.68373222    -0.13600
Br1681     Br  0.04198774  0.25581681  0.71051597    -0.05600
Br1682     Br  0.96178695  0.36201786  0.66783246     0.00000
Br1683     Br  0.92735354  0.11411447  0.70104941     0.00400
Br1684     Br  0.08479800  0.22742548  0.67681846    -0.04000
Br1685     Br  0.03018978  0.36354956  0.71157627     0.00500
Br1686     Br  0.96526692  0.25394606  0.66772649    -0.03300
Br1687     Br  0.92466545  0.22090861  0.70084036    -0.04100
Br1688     Br  0.08900765  0.12046720  0.67592677    -0.00200
C1689       C  0.00724742  0.99078374  0.72140400     0.01300
C1690       C  0.01482334  0.03018953  0.72689717     0.04100
C1691       C  0.01435127  0.03147278  0.73832378    -0.12000
C1692       C  0.00808202  0.99295597  0.74433784     0.23400
C1693       C  0.00134299  0.95331030  0.73881393    -0.12500
C1694       C  0.00015291  0.95241630  0.72737833     0.04800
C1695       C  0.00770797  0.99449805  0.75643545     0.27200
C1696       C  0.04675696  0.00039994  0.76225803    -0.13200
C1697       C  0.04589148  0.00488156  0.77363694     0.05300
C1698       C  0.00638403  0.00089888  0.77930796    -0.09200
C1699       C  0.96760275  0.99352433  0.77355478     0.06100
C1700       C  0.96806799  0.99146870  0.76213444    -0.13600
Br1701     Br  0.99387660  0.90018563  0.74691705    -0.05600
Br1702     Br  0.02542340  0.08253882  0.71872549     0.00000
Br1703     Br  0.09880648  0.01669287  0.78148797     0.00400
Br1704     Br  0.91420401  0.98574916  0.75427464    -0.04000
Br1705     Br  0.98885248  0.89861703  0.71986771     0.00500
Br1706     Br  0.02111956  0.08627632  0.74575275    -0.03300
Br1707     Br  0.10150462  0.00189744  0.75465608    -0.04100
Br1708     Br  0.91371436  0.98717033  0.78134809    -0.00200
C1709       C  0.00685481  0.99474170  0.59591848     0.01300
C1710       C  0.03358365  0.96438719  0.60135850     0.04100
C1711       C  0.03298167  0.96174787  0.61277724    -0.12000
C1712       C  0.00665851  0.99012678  0.61887431     0.23400
C1713       C  0.97954179  0.02004632  0.61348094    -0.12500
C1714       C  0.97912493  0.02195114  0.60204578     0.04800
C1715       C  0.00727939  0.98823386  0.63096541     0.27200
C1716       C  0.97469539  0.96557260  0.63658199    -0.13200
C1717       C  0.97448369  0.96465208  0.64803401     0.05300
C1718       C  0.00773444  0.98573386  0.65406737    -0.09200
C1719       C  0.04145813  0.00707066  0.64825308     0.06100
C1720       C  0.04078629  0.00861996  0.63680770    -0.13600
Br1721     Br  0.94294676  0.05847653  0.62182864    -0.05600
Br1722     Br  0.06930235  0.92439803  0.59322297     0.00000
Br1723     Br  0.92909313  0.93226370  0.65510130     0.00400
Br1724     Br  0.08594004  0.03891357  0.62898618    -0.04000
Br1725     Br  0.94111722  0.06276172  0.59487359     0.00500
Br1726     Br  0.06721037  0.91832275  0.62015679    -0.03300
Br1727     Br  0.93087140  0.93475864  0.62840423    -0.04100
Br1728     Br  0.08877573  0.03573497  0.65561794    -0.00200
loop_ 
_geom_bond_atom_site_label_1 
_geom_bond_atom_site_label_2 
_geom_bond_distance 
_geom_bond_site_symmetry_2 
_ccdc_geom_bond_type 
O1           Cu9   2.016       .  S
O1           C11   1.275       .  A
O2           Cu9   2.026   1_545  S
O2           C12   1.283       .  A
O3           Cu9   2.013       .  S
O3           C13   1.277       .  A
O4           Cu9   2.019       .  S
O4           C14   1.278       .  A
O5          Cu10   2.027       .  S
O5           C14   1.280   1_655  A
O6          Cu10   2.021       .  S
O6           C13   1.278   1_655  A
O7          Cu10   2.007   1_545  S
O7           C12   1.273   1_655  A
O8          Cu10   2.009       .  S
O8           C11   1.280   1_655  A
Cu9         Cu10   2.362   1_455  S
C11        C1649   1.494       .  S
C12        C1678   1.499       .  S
C13        C1689   1.477       .  S
C14        C1718   1.505       .  S
O15         Cu23   2.019       .  S
O15          C25   1.278       .  A
O16         Cu23   2.021       .  S
O16          C26   1.278   1_655  A
O17         Cu23   2.027       .  S
O17          C27   1.280       .  A
O18         Cu23   2.012       .  S
O18          C28   1.278       .  A
O19         Cu24   2.006       .  S
O19          C28   1.277   1_455  A
O20         Cu24   1.999       .  S
O20          C27   1.275   1_455  A
O21         Cu24   2.027       .  S
O21          C26   1.279       .  A
O22         Cu24   2.019       .  S
O22          C25   1.279   1_455  A
Cu23        Cu24   2.365   1_655  S
C25        C1609   1.490       .  S
C26        C1629   1.513       .  S
C27        C1669   1.478       .  S
C28        C1658   1.476       .  S
O29         Cu37   2.018       .  S
O29          C39   1.279       .  A
O30         Cu37   2.012   1_545  S
O30          C40   1.278       .  A
O31         Cu37   2.008       .  S
O31          C41   1.277       .  A
O32         Cu37   2.011       .  S
O32          C42   1.277       .  A
O33         Cu38   2.025       .  S
O33          C42   1.280       .  A
O34         Cu38   2.024       .  S
O34          C41   1.280       .  A
O35         Cu38   2.004   1_545  S
O35          C40   1.277       .  A
O36         Cu38   2.004       .  S
O36          C39   1.277       .  A
Cu37        Cu38   2.373       .  S
C39        C1529   1.481       .  S
C40        C1549   1.478       .  S
C41        C1589   1.487       .  S
C42        C1569   1.483       .  S
O43         Cu51   2.016       .  S
O43          C53   1.279       .  A
O44         Cu51   2.019       .  S
O44          C54   1.277       .  A
O45         Cu51   2.008       .  S
O45          C55   1.279       .  A
O46         Cu51   2.015       .  S
O46          C56   1.278       .  A
O47         Cu52   2.005       .  S
O47          C56   1.277       .  A
O48         Cu52   2.018       .  S
O48          C55   1.276       .  A
O49         Cu52   2.010       .  S
O49          C54   1.278       .  A
O50         Cu52   2.008       .  S
O50          C53   1.277       .  A
Cu51        Cu52   2.363       .  S
C53        C1509   1.482       .  S
C54        C1498   1.500       .  S
C55        C1558   1.495       .  S
C56        C1538   1.489       .  S
O57         Cu65   2.011       .  S
O57          C67   1.277       .  A
O58         Cu65   2.014       .  S
O58          C68   1.277       .  A
O59         Cu65   2.025   1_655  S
O59          C69   1.279       .  A
O60         Cu65   2.016       .  S
O60          C70   1.279       .  A
O61         Cu66   2.012       .  S
O61          C70   1.277   1_565  A
O62         Cu66   2.016   1_655  S
O62          C69   1.279   1_565  A
O63         Cu66   2.014       .  S
O63          C68   1.278   1_565  A
O64         Cu66   2.006       .  S
O64          C67   1.277   1_565  A
Cu65        Cu66   2.371   1_545  S
C67        C1469   1.474       .  S
C68        C1698   1.476       .  S
C69        C1429   1.493       .  S
C70        C1449   1.491   1_545  S
O71         Cu79   2.015   1_455  S
O71          C81   1.279       .  A
O72         Cu79   2.017       .  S
O72          C82   1.279       .  A
O73         Cu79   1.997       .  S
O73          C83   1.275       .  A
O74         Cu79   1.999       .  S
O74          C84   1.276       .  A
O75         Cu80   2.012       .  S
O75          C84   1.278       .  A
O76         Cu80   2.012       .  S
O76          C83   1.278       .  A
O77         Cu80   2.017       .  S
O77          C82   1.279       .  A
O78         Cu80   2.018   1_455  S
O78          C81   1.279       .  A
Cu79        Cu80   2.372       .  S
C81        C1398   1.492       .  S
C82        C1369   1.490       .  S
C83        C1409   1.468       .  S
C84        C1618   1.475       .  S
O85         Cu93   2.025       .  S
O85          C95   1.280       .  A
O86         Cu93   2.023       .  S
O86          C96   1.279       .  A
O87         Cu93   2.019       .  S
O87          C97   1.279       .  A
O88         Cu93   2.017       .  S
O88          C98   1.279       .  A
O89         Cu94   2.013       .  S
O89          C98   1.278   1_565  A
O90         Cu94   2.020       .  S
O90          C97   1.279   1_565  A
O91         Cu94   2.018       .  S
O91          C96   1.279   1_565  A
O92         Cu94   2.021       .  S
O92          C95   1.278   1_565  A
Cu93        Cu94   2.370   1_545  S
C95        C1578   1.485       .  S
C96        C1349   1.490       .  S
C97        C1438   1.489       .  S
C98        C1458   1.487   1_545  S
O99        Cu107   2.014       .  S
O99         C109   1.278       .  A
O100       Cu107   2.016       .  S
O100        C110   1.278       .  A
O101       Cu107   2.015       .  S
O101        C111   1.278       .  A
O102       Cu107   2.009       .  S
O102        C112   1.279       .  A
O103       Cu108   2.009       .  S
O103        C112   1.277       .  A
O104       Cu108   2.007       .  S
O104        C111   1.278       .  A
O105       Cu108   2.013       .  S
O105        C110   1.279       .  A
O106       Cu108   2.022       .  S
O106        C109   1.279       .  A
Cu107      Cu108   2.372       .  S
C109       C1389   1.484       .  S
C110       C1378   1.483       .  S
C111       C1329   1.480       .  S
C112       C1489   1.485       .  S
O113       Cu121   2.014       .  S
O113        C123   1.278   1_655  A
O114       Cu121   2.009   1_565  S
O114        C124   1.278       .  A
O115       Cu121   2.021       .  S
O115        C125   1.279       .  A
O116       Cu121   2.027       .  S
O116        C126   1.280       .  A
O117       Cu122   2.016       .  S
O117        C126   1.278   1_455  A
O118       Cu122   2.020       .  S
O118        C125   1.279   1_455  A
O119       Cu122   2.004   1_565  S
O119        C124   1.277   1_455  A
O120       Cu122   2.007       .  S
O120        C123   1.278       .  A
Cu121      Cu122   2.371   1_655  S
C123       C1278   1.489       .  S
C124       C1258   1.478       .  S
C125       C1309   1.486       .  S
C126       C1289   1.485   1_655  S
O127       Cu135   2.033       .  S
O127        C137   1.281       .  A
O128       Cu135   2.024       .  S
O128        C138   1.279       .  A
O129       Cu135   2.013       .  S
O129        C139   1.277       .  A
O130       Cu135   2.016       .  S
O130        C140   1.278       .  A
O131       Cu136   2.007       .  S
O131        C140   1.278   1_655  A
O132       Cu136   2.016       .  S
O132        C139   1.278   1_655  A
O133       Cu136   2.015       .  S
O133        C138   1.277   1_655  A
O134       Cu136   2.006       .  S
O134        C137   1.276   1_655  A
Cu135      Cu136   2.367   1_455  S
C137       C1229   1.493   1_455  S
C138       C1209   1.481       .  S
C139       C1249   1.498       .  S
C140       C1269   1.481       .  S
O141       Cu149   2.020       .  S
O141        C151   1.280       .  A
O142       Cu149   2.014       .  S
O142        C152   1.279       .  A
O143       Cu149   2.009       .  S
O143        C153   1.277       .  A
O144       Cu149   2.010   1_565  S
O144        C154   1.277       .  A
O145       Cu150   2.019   1_565  S
O145        C154   1.280       .  A
O146       Cu150   2.024       .  S
O146        C153   1.280       .  A
O147       Cu150   2.008       .  S
O147        C152   1.277       .  A
O148       Cu150   2.000       .  S
O148        C151   1.276       .  A
Cu149      Cu150   2.370       .  S
C151       C1169   1.481       .  S
C152       C1189   1.478       .  S
C153       C1149   1.495       .  S
C154       C1138   1.483       .  S
O155       Cu163   2.017       .  S
O155        C165   1.278       .  A
O156       Cu163   2.016       .  S
O156        C166   1.279       .  A
O157       Cu163   2.013       .  S
O157        C167   1.278       .  A
O158       Cu163   2.006       .  S
O158        C168   1.277       .  A
O159       Cu164   2.011       .  S
O159        C168   1.278       .  A
O160       Cu164   2.009       .  S
O160        C167   1.278       .  A
O161       Cu164   2.013       .  S
O161        C166   1.278       .  A
O162       Cu164   2.010       .  S
O162        C165   1.278       .  A
Cu163      Cu164   2.370       .  S
C165       C1158   1.479       .  S
C166       C1129   1.486       .  S
C167       C1109   1.487       .  S
C168       C1089   1.483       .  S
O169       Cu177   2.017       .  S
O169        C179   1.278       .  A
O170       Cu177   2.022       .  S
O170        C180   1.279   1_465  A
O171       Cu177   2.019   1_545  S
O171        C181   1.278       .  A
O172       Cu177   2.016       .  S
O172        C182   1.279   1_455  A
O173       Cu178   2.006       .  S
O173        C182   1.277       .  A
O174       Cu178   2.006   1_545  S
O174        C181   1.277   1_655  A
O175       Cu178   2.022   1_545  S
O175        C180   1.279       .  A
O176       Cu178   2.024       .  S
O176        C179   1.280   1_655  A
Cu177      Cu178   2.367   1_455  S
C179       C1069   1.495       .  S
C180       C1318   1.500       .  S
C181       C1058   1.477       .  S
C182       C1038   1.481       .  S
O183       Cu191   2.027       .  S
O183        C193   1.280   1_455  A
O184       Cu191   2.027       .  S
O184        C194   1.280   1_455  A
O185       Cu191   2.011       .  S
O185        C195   1.278   1_455  A
O186       Cu191   2.012       .  S
O186        C196   1.278   1_455  A
O187       Cu192   2.012       .  S
O187        C196   1.278       .  A
O188       Cu192   2.009       .  S
O188        C195   1.278       .  A
O189       Cu192   2.023       .  S
O189        C194   1.279       .  A
O190       Cu192   2.016       .  S
O190        C193   1.278       .  A
Cu191      Cu192   2.369   1_455  S
C193       C1238   1.487       .  S
C194       C1009   1.491       .  S
C195       C1049   1.489       .  S
C196       C1029   1.486       .  S
O197       Cu205   2.005       .  S
O197        C207   1.277       .  A
O198       Cu205   2.006       .  S
O198        C208   1.277       .  A
O199       Cu205   2.013       .  S
O199        C209   1.278       .  A
O200       Cu205   2.011   1_545  S
O200        C210   1.278       .  A
O201       Cu206   2.013   1_545  S
O201        C210   1.278       .  A
O202       Cu206   2.012       .  S
O202        C209   1.278       .  A
O203       Cu206   2.017       .  S
O203        C208   1.279       .  A
O204       Cu206   2.016       .  S
O204        C207   1.279       .  A
Cu205      Cu206   2.370       .  S
C207        C989   1.482       .  S
C208       C1198   1.486   1_565  S
C209        C949   1.484       .  S
C210        C969   1.482       .  S
O211       Cu219   2.006       .  S
O211        C221   1.277       .  A
O212       Cu219   2.007       .  S
O212        C222   1.277       .  A
O213       Cu219   2.018       .  S
O213        C223   1.279       .  A
O214       Cu219   2.024       .  S
O214        C224   1.280       .  A
O215       Cu220   2.000       .  S
O215        C224   1.276       .  A
O216       Cu220   2.004       .  S
O216        C223   1.277       .  A
O217       Cu220   2.012       .  S
O217        C222   1.278       .  A
O218       Cu220   2.012       .  S
O218        C221   1.278       .  A
Cu219      Cu220   2.373       .  S
C221        C929   1.484       .  S
C222       C1118   1.476       .  S
C223        C978   1.481       .  S
C224        C958   1.483       .  S
O225       Cu233   2.019       .  S
O225        C235   1.279   1_565  A
O226       Cu233   2.021   1_655  S
O226        C236   1.279       .  A
O227       Cu233   2.013       .  S
O227        C237   1.279   1_565  A
O228       Cu233   2.013       .  S
O228        C238   1.278       .  A
O229       Cu234   1.999       .  S
O229        C238   1.277   1_545  A
O230       Cu234   2.005   1_655  S
O230        C237   1.277   1_655  A
O231       Cu234   2.012   1_655  S
O231        C236   1.278   1_545  A
O232       Cu234   2.010       .  S
O232        C235   1.277       .  A
Cu233      Cu234   2.372   1_565  S
C235        C878   1.482       .  S
C236        C849   1.485       .  S
C237        C898   1.481   1_455  S
C238        C918   1.480       .  S
O239       Cu247   2.008       .  S
O239        C249   1.277       .  A
O240       Cu247   2.020   1_655  S
O240        C250   1.279       .  A
O241       Cu247   2.014       .  S
O241        C251   1.277       .  A
O242       Cu247   2.009       .  S
O242        C252   1.278       .  A
O243       Cu248   2.004       .  S
O243        C252   1.277       .  A
O244       Cu248   2.004       .  S
O244        C251   1.275       .  A
O245       Cu248   2.013   1_655  S
O245        C250   1.278       .  A
O246       Cu248   2.022       .  S
O246        C249   1.279       .  A
Cu247      Cu248   2.366       .  S
C249        C789   1.484       .  S
C250        C778   1.489       .  S
C251        C809   1.503       .  S
C252        C829   1.477       .  S
O253       Cu261   2.025       .  S
O253        C263   1.280       .  A
O254       Cu261   2.016       .  S
O254        C264   1.279   1_545  A
O255       Cu261   2.011       .  S
O255        C265   1.278       .  A
O256       Cu261   2.009       .  S
O256        C266   1.277   1_545  A
O257       Cu262   2.017       .  S
O257        C266   1.279       .  A
O258       Cu262   2.017       .  S
O258        C265   1.278   1_565  A
O259       Cu262   2.017       .  S
O259        C264   1.278       .  A
O260       Cu262   2.008       .  S
O260        C263   1.278   1_565  A
Cu261      Cu262   2.370   1_545  S
C263        C869   1.488       .  S
C264        C858   1.486       .  S
C265        C738   1.478       .  S
C266        C749   1.490       .  S
O267       Cu275   2.012       .  S
O267        C277   1.276       .  A
O268       Cu275   2.007       .  S
O268        C278   1.277       .  A
O269       Cu275   2.017       .  S
O269        C279   1.279       .  A
O270       Cu275   2.011       .  S
O270        C280   1.278       .  A
O271       Cu276   2.008       .  S
O271        C280   1.277       .  A
O272       Cu276   2.010       .  S
O272        C279   1.277       .  A
O273       Cu276   2.024       .  S
O273        C278   1.279       .  A
O274       Cu276   2.026       .  S
O274        C277   1.277       .  A
Cu275      Cu276   2.363       .  S
C277        C698   1.517       .  S
C278        C709   1.482       .  S
C279        C769   1.486       .  S
C280        C798   1.481       .  S
O281       Cu289   2.016   1_655  S
O281        C291   1.278       .  A
O282       Cu289   2.007       .  S
O282        C292   1.277       .  A
O283       Cu289   2.022       .  S
O283        C293   1.279       .  A
O284       Cu289   2.018       .  S
O284        C294   1.279       .  A
O285       Cu290   2.000   1_655  S
O285        C294   1.276   1_645  A
O286       Cu290   2.009       .  S
O286        C293   1.277   1_545  A
O287       Cu290   2.020       .  S
O287        C292   1.279   1_545  A
O288       Cu290   2.015   1_655  S
O288        C291   1.279   1_545  A
Cu289      Cu290   2.371   1_565  S
C291        C649   1.485       .  S
C292        C678   1.489       .  S
C293       C1298   1.479       .  S
C294        C909   1.483       .  S
O295       Cu303   2.013       .  S
O295        C305   1.277       .  A
O296       Cu303   2.009       .  S
O296        C306   1.277   1_455  A
O297       Cu303   2.013   1_655  S
O297        C307   1.277       .  A
O298       Cu303   2.013       .  S
O298        C308   1.277       .  A
O299       Cu304   2.007   1_455  S
O299        C308   1.275       .  A
O300       Cu304   2.009       .  S
O300        C307   1.276       .  A
O301       Cu304   2.012       .  S
O301        C306   1.278       .  A
O302       Cu304   2.013   1_455  S
O302        C305   1.278       .  A
Cu303      Cu304   2.356   1_455  S
C305       C1218   1.478       .  S
C306        C838   1.480   1_655  S
C307        C618   1.506       .  S
C308        C629   1.507       .  S
O309       Cu317   2.015       .  S
O309        C319   1.278   1_545  A
O310       Cu317   2.014       .  S
O310        C320   1.279   1_545  A
O311       Cu317   2.003       .  S
O311        C321   1.277   1_545  A
O312       Cu317   2.005       .  S
O312        C322   1.277   1_545  A
O313       Cu318   2.019       .  S
O313        C322   1.279       .  A
O314       Cu318   2.021       .  S
O314        C321   1.279       .  A
O315       Cu318   2.012       .  S
O315        C320   1.278       .  A
O316       Cu318   2.013       .  S
O316        C319   1.278       .  A
Cu317      Cu318   2.372   1_545  S
C319        C669   1.482       .  S
C320        C658   1.486       .  S
C321        C758   1.483       .  S
C322       C1178   1.482       .  S
O323       Cu331   2.019       .  S
O323        C333   1.278       .  A
O324       Cu331   2.005       .  S
O324        C334   1.275       .  A
O325       Cu331   2.028       .  S
O325        C335   1.280       .  A
O326       Cu331   2.026       .  S
O326        C336   1.280       .  A
O327       Cu332   1.995       .  S
O327        C336   1.275       .  A
O328       Cu332   2.002       .  S
O328        C335   1.276       .  A
O329       Cu332   2.021       .  S
O329        C334   1.279       .  A
O330       Cu332   2.003       .  S
O330        C333   1.275       .  A
Cu331      Cu332   2.367       .  S
C333        C638   1.472       .  S
C334        C609   1.474       .  S
C335        C718   1.502       .  S
C336       C1098   1.496       .  S
O337       Cu345   2.012   1_455  S
O337        C347   1.278       .  A
O338       Cu345   2.015       .  S
O338        C348   1.279       .  A
O339       Cu345   2.019   1_455  S
O339        C349   1.279       .  A
O340       Cu345   2.017       .  S
O340        C350   1.278       .  A
O341       Cu346   2.014   1_655  S
O341        C350   1.279   1_565  A
O342       Cu346   2.014       .  S
O342        C349   1.278   1_565  A
O343       Cu346   2.001   1_655  S
O343        C348   1.276   1_565  A
O344       Cu346   2.005       .  S
O344        C347   1.277   1_565  A
Cu345      Cu346   2.368   1_645  S
C347       C1478   1.484       .  S
C348        C889   1.482       .  S
C349        C589   1.492       .  S
C350        C569   1.483       .  S
O351       Cu359   2.005   1_455  S
O351        C361   1.277       .  A
O352       Cu359   2.016       .  S
O352        C362   1.279       .  A
O353       Cu359   2.008       .  S
O353        C363   1.278       .  A
O354       Cu359   2.010       .  S
O354        C364   1.276       .  A
O355       Cu360   2.004       .  S
O355        C364   1.276       .  A
O356       Cu360   1.999       .  S
O356        C363   1.276       .  A
O357       Cu360   2.015       .  S
O357        C362   1.278       .  A
O358       Cu360   2.024   1_455  S
O358        C361   1.279       .  A
Cu359      Cu360   2.366       .  S
C361        C549   1.490       .  S
C362        C529   1.485       .  S
C363        C818   1.473       .  S
C364       C1418   1.502       .  S
O365       Cu373   2.012       .  S
O365        C375   1.278       .  A
O366       Cu373   2.008       .  S
O366        C376   1.277       .  A
O367       Cu373   2.009       .  S
O367        C377   1.278       .  A
O368       Cu373   2.017       .  S
O368        C378   1.278       .  A
O369       Cu374   2.015       .  S
O369        C378   1.278   1_565  A
O370       Cu374   2.023       .  S
O370        C377   1.279   1_565  A
O371       Cu374   2.022       .  S
O371        C376   1.279   1_565  A
O372       Cu374   2.031       .  S
O372        C375   1.281   1_565  A
Cu373      Cu374   2.366   1_545  S
C375       C1358   1.494       .  S
C376        C729   1.501       .  S
C377        C578   1.484       .  S
C378        C598   1.480       .  S
O379       Cu387   2.025       .  S
O379        C389   1.279       .  A
O380       Cu387   2.027       .  S
O380        C390   1.279       .  A
O381       Cu387   2.016       .  S
O381        C391   1.278       .  A
O382       Cu387   2.021       .  S
O382        C392   1.279       .  A
O383       Cu388   2.011       .  S
O383        C392   1.277       .  A
O384       Cu388   2.016       .  S
O384        C391   1.279       .  A
O385       Cu388   2.010       .  S
O385        C390   1.277       .  A
O386       Cu388   2.015       .  S
O386        C389   1.277       .  A
Cu387      Cu388   2.363       .  S
C389       C1338   1.509       .  S
C390        C689   1.479       .  S
C391        C538   1.496       .  S
C392        C558   1.490       .  S
O393       Cu401   2.020       .  S
O393        C403   1.279   1_545  A
O394       Cu401   2.019       .  S
O394        C404   1.279   1_545  A
O395       Cu401   2.011   1_565  S
O395        C405   1.277       .  A
O396       Cu401   2.011       .  S
O396        C406   1.278       .  A
O397       Cu402   2.016   1_545  S
O397        C406   1.278   1_655  A
O398       Cu402   2.007       .  S
O398        C405   1.278   1_655  A
O399       Cu402   2.013       .  S
O399        C404   1.278   1_655  A
O400       Cu402   2.007       .  S
O400        C403   1.277   1_655  A
Cu401      Cu402   2.372   1_445  S
C403       C1078   1.482       .  S
C404       C1709   1.486       .  S
C405        C489   1.483       .  S
C406        C518   1.483       .  S
O407       Cu415   2.020       .  S
O407        C417   1.280   1_655  A
O408       Cu415   2.025       .  S
O408        C418   1.280   1_655  A
O409       Cu415   2.016       .  S
O409        C419   1.278   1_655  A
O410       Cu415   2.010       .  S
O410        C420   1.277   1_655  A
O411       Cu416   2.029       .  S
O411        C420   1.281       .  A
O412       Cu416   2.031       .  S
O412        C419   1.281       .  A
O413       Cu416   2.004       .  S
O413        C418   1.276       .  A
O414       Cu416   2.006       .  S
O414        C417   1.276       .  A
Cu415      Cu416   2.370   1_655  S
C417        C498   1.484       .  S
C418        C509   1.489       .  S
C419       C1638   1.487       .  S
C420       C1018   1.489   1_455  S
O421       Cu429   2.003       .  S
O421        C431   1.277       .  A
O422       Cu429   2.002   1_545  S
O422        C432   1.276   1_545  A
O423       Cu429   2.021   1_545  S
O423        C433   1.279       .  A
O424       Cu429   2.014       .  S
O424        C434   1.279       .  A
O425       Cu430   2.008       .  S
O425        C434   1.277       .  A
O426       Cu430   2.010   1_545  S
O426        C433   1.277       .  A
O427       Cu430   2.024       .  S
O427        C432   1.280       .  A
O428       Cu430   2.027       .  S
O428        C431   1.280       .  A
Cu429      Cu430   2.372       .  S
C431       C1598   1.484       .  S
C432        C998   1.485       .  S
C433        C478   1.483       .  S
C434        C458   1.481       .  S
O435       Cu443   2.009       .  S
O435        C445   1.278       .  A
O436       Cu443   2.009       .  S
O436        C446   1.278       .  A
O437       Cu443   2.009       .  S
O437        C447   1.277       .  A
O438       Cu443   2.008       .  S
O438        C448   1.278       .  A
O439       Cu444   2.020       .  S
O439        C448   1.279       .  A
O440       Cu444   2.017       .  S
O440        C447   1.279       .  A
O441       Cu444   2.009       .  S
O441        C446   1.277       .  A
O442       Cu444   2.015       .  S
O442        C445   1.278       .  A
Cu443      Cu444   2.370       .  S
C445       C1518   1.486       .  S
C446        C938   1.484       .  S
C447        C449   1.481       .  S
C448        C469   1.486       .  S
C449        C450   1.412       .  A
C449        C454   1.412       .  A
C450        C451   1.409       .  A
C450       Br462   1.931       .  S
C451        C452   1.410       .  A
C451       Br466   1.930       .  S
C452        C455   1.488       .  S
C452        C453   1.410       .  A
C453        C454   1.409       .  A
C453       Br461   1.930       .  S
C454       Br465   1.931       .  S
C455        C456   1.410       .  A
C455        C460   1.409       .  A
C456        C457   1.408       .  A
C456       Br467   1.931       .  S
C457        C458   1.413       .  A
C457       Br463   1.932       .  S
C458        C459   1.413       .  A
C459        C460   1.408       .  A
C459       Br468   1.931       .  S
C460       Br464   1.929       .  S
C469        C470   1.415       .  A
C469        C474   1.414       .  A
C470        C471   1.411       .  A
C470       Br482   1.931       .  S
C471        C472   1.410       .  A
C471       Br486   1.930       .  S
C472        C475   1.490       .  S
C472        C473   1.409       .  A
C473        C474   1.408       .  A
C473       Br481   1.931       .  S
C474       Br485   1.933       .  S
C475        C476   1.410       .  A
C475        C480   1.410       .  A
C476        C477   1.410       .  A
C476       Br487   1.929       .  S
C477        C478   1.412       .  A
C477       Br483   1.931       .  S
C478        C479   1.413       .  A
C479        C480   1.409       .  A
C479       Br488   1.931       .  S
C480       Br484   1.931       .  S
C489        C490   1.416       .  A
C489        C494   1.414   1_455  A
C490        C491   1.410       .  A
C490       Br502   1.932       .  S
C491        C492   1.408       .  A
C491       Br506   1.930       .  S
C492        C495   1.485       .  S
C492        C493   1.407   1_455  A
C493        C494   1.406       .  A
C493       Br501   1.930       .  S
C494       Br505   1.933       .  S
C495        C496   1.408   1_455  A
C495        C500   1.408       .  A
C496        C497   1.408       .  A
C496       Br507   1.930       .  S
C497        C498   1.415   1_655  A
C497       Br503   1.932       .  S
C498        C499   1.415       .  A
C499        C500   1.409       .  A
C499       Br508   1.931       .  S
C500       Br504   1.931       .  S
C509        C510   1.418       .  A
C509        C514   1.415   1_455  A
C510        C511   1.410       .  A
C510       Br522   1.934       .  S
C511        C512   1.408       .  A
C511       Br526   1.931       .  S
C512        C515   1.489       .  S
C512        C513   1.409   1_455  A
C513        C514   1.410       .  A
C513       Br521   1.930       .  S
C514       Br525   1.931       .  S
C515        C516   1.410   1_455  A
C515        C520   1.409       .  A
C516        C517   1.411       .  A
C516       Br527   1.930       .  S
C517        C518   1.414   1_655  A
C517       Br523   1.931       .  S
C518        C519   1.412       .  A
C519        C520   1.408       .  A
C519       Br528   1.931       .  S
C520       Br524   1.930       .  S
C529        C530   1.414       .  A
C529        C534   1.413       .  A
C530        C531   1.410       .  A
C530       Br542   1.931       .  S
C531        C532   1.409       .  A
C531       Br546   1.930       .  S
C532        C535   1.487       .  S
C532        C533   1.407       .  A
C533        C534   1.407       .  A
C533       Br541   1.931       .  S
C534       Br545   1.926       .  S
C535        C536   1.405       .  A
C535        C540   1.407       .  A
C536        C537   1.407       .  A
C536       Br547   1.933       .  S
C537        C538   1.419       .  A
C537       Br543   1.928       .  S
C538        C539   1.421       .  A
C539        C540   1.412       .  A
C539       Br548   1.933       .  S
C540       Br544   1.931       .  S
C549        C550   1.417       .  A
C549        C554   1.417       .  A
C550        C551   1.410       .  A
C550       Br562   1.928       .  S
C551        C552   1.407       .  A
C551       Br566   1.931       .  S
C552        C555   1.487       .  S
C552        C553   1.407       .  A
C553        C554   1.408       .  A
C553       Br561   1.931       .  S
C554       Br565   1.933       .  S
C555        C556   1.407       .  A
C555        C560   1.406       .  A
C556        C557   1.410       .  A
C556       Br567   1.930       .  S
C557        C558   1.418       .  A
C557       Br563   1.932       .  S
C558        C559   1.416       .  A
C559        C560   1.408       .  A
C559       Br568   1.927       .  S
C560       Br564   1.932       .  S
C569        C570   1.412   1_545  A
C569        C574   1.413       .  A
C570        C571   1.408       .  A
C570       Br582   1.931       .  S
C571        C572   1.410   1_565  A
C571       Br586   1.930       .  S
C572        C575   1.491       .  S
C572        C573   1.411       .  A
C573        C574   1.411       .  A
C573       Br581   1.930       .  S
C574       Br585   1.931       .  S
C575        C576   1.411   1_545  A
C575        C580   1.410       .  A
C576        C577   1.412       .  A
C576       Br587   1.930       .  S
C577        C578   1.414   1_565  A
C577       Br583   1.930       .  S
C578        C579   1.413       .  A
C579        C580   1.408       .  A
C579       Br588   1.932       .  S
C580       Br584   1.931       .  S
C589        C590   1.416   1_545  A
C589        C594   1.417       .  A
C590        C591   1.409       .  A
C590       Br602   1.932       .  S
C591        C592   1.408   1_565  A
C591       Br606   1.931       .  S
C592        C595   1.491       .  S
C592        C593   1.409       .  A
C593        C594   1.412       .  A
C593       Br601   1.930       .  S
C594       Br605   1.932       .  S
C595        C596   1.411   1_545  A
C595        C600   1.411       .  A
C596        C597   1.411       .  A
C596       Br607   1.930       .  S
C597        C598   1.412   1_565  A
C597       Br603   1.931       .  S
C598        C599   1.409       .  A
C599        C600   1.408       .  A
C599       Br608   1.930       .  S
C600       Br604   1.929       .  S
C609        C610   1.408       .  A
C609        C614   1.409       .  A
C610        C611   1.407       .  A
C610       Br622   1.929       .  S
C611        C612   1.410       .  A
C611       Br626   1.929       .  S
C612        C615   1.485       .  S
C612        C613   1.409       .  A
C613        C614   1.408       .  A
C613       Br621   1.929       .  S
C614       Br625   1.925       .  S
C615        C616   1.403       .  A
C615        C620   1.403       .  A
C616        C617   1.410       .  A
C616       Br627   1.935       .  S
C617        C618   1.429       .  A
C617       Br623   1.937       .  S
C618        C619   1.429       .  A
C619        C620   1.410       .  A
C619       Br628   1.936       .  S
C620       Br624   1.934       .  S
C629        C630   1.428       .  A
C629        C634   1.430       .  A
C630        C631   1.409       .  A
C630       Br642   1.936       .  S
C631        C632   1.403       .  A
C631       Br646   1.935       .  S
C632        C635   1.486       .  S
C632        C633   1.403       .  A
C633        C634   1.410       .  A
C633       Br641   1.935       .  S
C634       Br645   1.937       .  S
C635        C636   1.411       .  A
C635        C640   1.409       .  A
C636        C637   1.408       .  A
C636       Br647   1.928       .  S
C637        C638   1.407       .  A
C637       Br643   1.929       .  S
C638        C639   1.409       .  A
C639        C640   1.406       .  A
C639       Br648   1.927       .  S
C640       Br644   1.931       .  S
C649        C650   1.414   1_565  A
C649        C654   1.414       .  A
C650        C651   1.409       .  A
C650       Br662   1.932       .  S
C651        C652   1.409   1_545  A
C651       Br666   1.930       .  S
C652        C655   1.489       .  S
C652        C653   1.409       .  A
C653        C654   1.410       .  A
C653       Br661   1.930       .  S
C654       Br665   1.930       .  S
C655        C656   1.409   1_565  A
C655        C660   1.408       .  A
C656        C657   1.409       .  A
C656       Br667   1.930       .  S
C657        C658   1.414   1_545  A
C657       Br663   1.932       .  S
C658        C659   1.416       .  A
C659        C660   1.410       .  A
C659       Br668   1.932       .  S
C660       Br664   1.930       .  S
C669        C670   1.413       .  A
C669        C674   1.412   1_565  A
C670        C671   1.409       .  A
C670       Br682   1.931       .  S
C671        C672   1.409       .  A
C671       Br686   1.930       .  S
C672        C675   1.488       .  S
C672        C673   1.409   1_565  A
C673        C674   1.409       .  A
C673       Br681   1.929       .  S
C674       Br685   1.931       .  S
C675        C676   1.408       .  A
C675        C680   1.408   1_565  A
C676        C677   1.409       .  A
C676       Br687   1.931       .  S
C677        C678   1.418       .  A
C677       Br683   1.933       .  S
C678        C679   1.416   1_565  A
C679        C680   1.410       .  A
C679       Br688   1.932       .  S
C680       Br684   1.930       .  S
C689        C690   1.410       .  A
C689        C694   1.410       .  A
C690        C691   1.409       .  A
C690       Br702   1.930       .  S
C691        C692   1.410       .  A
C691       Br706   1.929       .  S
C692        C695   1.492   1_556  S
C692        C693   1.411       .  A
C693        C694   1.410       .  A
C693       Br701   1.928       .  S
C694       Br705   1.927       .  S
C695        C696   1.403       .  A
C695        C700   1.404       .  A
C696        C697   1.413       .  A
C696       Br707   1.934       .  S
C697        C698   1.432       .  A
C697       Br703   1.936       .  S
C698        C699   1.433       .  A
C699        C700   1.413       .  A
C699       Br708   1.938       .  S
C700       Br704   1.936       .  S
C709        C710   1.413       .  A
C709        C714   1.412       .  A
C710        C711   1.408       .  A
C710       Br722   1.931       .  S
C711        C712   1.408       .  A
C711       Br726   1.930       .  S
C712        C715   1.489       .  S
C712        C713   1.410       .  A
C713        C714   1.410       .  A
C713       Br721   1.930       .  S
C714       Br725   1.930       .  S
C715        C716   1.404       .  A
C715        C720   1.407       .  A
C716        C717   1.410       .  A
C716       Br727   1.933       .  S
C717        C718   1.425       .  A
C717       Br723   1.936       .  S
C718        C719   1.423       .  A
C719        C720   1.412       .  A
C719       Br728   1.933       .  S
C720       Br724   1.933       .  S
C729        C730   1.425       .  A
C729        C734   1.423   1_545  A
C730        C731   1.410       .  A
C730       Br742   1.935       .  S
C731        C732   1.405       .  A
C731       Br746   1.933       .  S
C732        C735   1.488   1_556  S
C732        C733   1.406   1_545  A
C733        C734   1.411       .  A
C733       Br741   1.932       .  S
C734       Br745   1.933       .  S
C735        C736   1.409       .  A
C735        C740   1.410   1_545  A
C736        C737   1.408       .  A
C736       Br747   1.929       .  S
C737        C738   1.411       .  A
C737       Br743   1.930       .  S
C738        C739   1.411   1_545  A
C739        C740   1.409       .  A
C739       Br748   1.930       .  S
C740       Br744   1.930       .  S
C749        C750   1.417   1_565  A
C749        C754   1.418       .  A
C750        C751   1.409       .  A
C750       Br762   1.932       .  S
C751        C752   1.407   1_545  A
C751       Br766   1.931       .  S
C752        C755   1.487       .  S
C752        C753   1.407       .  A
C753        C754   1.410       .  A
C753       Br761   1.930       .  S
C754       Br765   1.933       .  S
C755        C756   1.409   1_565  A
C755        C760   1.409       .  A
C756        C757   1.409       .  A
C756       Br767   1.930       .  S
C757        C758   1.415   1_545  A
C757       Br763   1.933       .  S
C758        C759   1.412       .  A
C759        C760   1.408       .  A
C759       Br768   1.930       .  S
C760       Br764   1.930       .  S
C769        C770   1.414       .  A
C769        C774   1.416       .  A
C770        C771   1.409       .  A
C770       Br782   1.931       .  S
C771        C772   1.408       .  A
C771       Br786   1.929       .  S
C772        C775   1.489       .  S
C772        C773   1.408       .  A
C773        C774   1.410       .  A
C773       Br781   1.931       .  S
C774       Br785   1.933       .  S
C775        C776   1.407       .  A
C775        C780   1.408       .  A
C776        C777   1.409       .  A
C776       Br787   1.932       .  S
C777        C778   1.415       .  A
C777       Br783   1.927       .  S
C778        C779   1.416       .  A
C779        C780   1.410       .  A
C779       Br788   1.932       .  S
C780       Br784   1.929       .  S
C789        C790   1.414       .  A
C789        C794   1.412       .  A
C790        C791   1.409       .  A
C790       Br802   1.932       .  S
C791        C792   1.410       .  A
C791       Br806   1.931       .  S
C792        C795   1.487       .  S
C792        C793   1.409       .  A
C793        C794   1.407       .  A
C793       Br801   1.932       .  S
C794       Br805   1.926       .  S
C795        C796   1.409       .  A
C795        C800   1.410       .  A
C796        C797   1.407       .  A
C796       Br807   1.931       .  S
C797        C798   1.413       .  A
C797       Br803   1.932       .  S
C798        C799   1.414       .  A
C799        C800   1.408       .  A
C799       Br808   1.932       .  S
C800       Br804   1.931       .  S
C809        C810   1.428       .  A
C809        C814   1.427   1_455  A
C810        C811   1.408       .  A
C810       Br822   1.936       .  S
C811        C812   1.403   1_455  A
C811       Br826   1.936       .  S
C812        C815   1.483   1_554  S
C812        C813   1.403       .  A
C813        C814   1.409       .  A
C813       Br821   1.934       .  S
C814       Br825   1.934       .  S
C815        C816   1.409       .  A
C815        C820   1.409   1_655  A
C816        C817   1.405       .  A
C816       Br827   1.930       .  S
C817        C818   1.410       .  A
C817       Br823   1.931       .  S
C818        C819   1.412   1_655  A
C819        C820   1.407       .  A
C819       Br828   1.932       .  S
C820       Br824   1.931       .  S
C829        C830   1.412       .  A
C829        C834   1.411   1_455  A
C830        C831   1.407       .  A
C830       Br842   1.931       .  S
C831        C832   1.409       .  A
C831       Br846   1.930       .  S
C832        C835   1.485       .  S
C832        C833   1.410   1_455  A
C833        C834   1.407       .  A
C833       Br841   1.930       .  S
C834       Br845   1.932       .  S
C835        C836   1.409       .  A
C835        C840   1.409   1_455  A
C836        C837   1.408       .  A
C836       Br847   1.932       .  S
C837        C838   1.413       .  A
C837       Br843   1.932       .  S
C838        C839   1.413   1_455  A
C839        C840   1.408       .  A
C839       Br848   1.931       .  S
C840       Br844   1.930       .  S
C849        C850   1.413   1_565  A
C849        C854   1.413       .  A
C850        C851   1.409       .  A
C850       Br862   1.932       .  S
C851        C852   1.409   1_545  A
C851       Br866   1.929       .  S
C852        C855   1.491       .  S
C852        C853   1.410       .  A
C853        C854   1.411       .  A
C853       Br861   1.929       .  S
C854       Br865   1.930       .  S
C855        C856   1.409   1_565  A
C855        C860   1.410       .  A
C856        C857   1.410       .  A
C856       Br867   1.930       .  S
C857        C858   1.414   1_545  A
C857       Br863   1.932       .  S
C858        C859   1.414       .  A
C859        C860   1.411       .  A
C859       Br868   1.931       .  S
C860       Br864   1.929       .  S
C869        C870   1.416       .  A
C869        C874   1.415   1_545  A
C870        C871   1.411       .  A
C870       Br882   1.931       .  S
C871        C872   1.409       .  A
C871       Br886   1.930       .  S
C872        C875   1.489       .  S
C872        C873   1.408   1_545  A
C873        C874   1.408       .  A
C873       Br881   1.931       .  S
C874       Br885   1.932       .  S
C875        C876   1.409       .  A
C875        C880   1.410   1_545  A
C876        C877   1.408       .  A
C876       Br887   1.930       .  S
C877        C878   1.412       .  A
C877       Br883   1.931       .  S
C878        C879   1.412   1_545  A
C879        C880   1.410       .  A
C879       Br888   1.931       .  S
C880       Br884   1.929       .  S
C889        C890   1.415   1_645  A
C889        C894   1.414       .  A
C890        C891   1.407       .  A
C890       Br902   1.933       .  S
C891        C892   1.408   1_465  A
C891       Br906   1.931       .  S
C892        C895   1.484   1_556  S
C892        C893   1.408       .  A
C893        C894   1.408       .  A
C893       Br901   1.929       .  S
C894       Br905   1.931       .  S
C895        C896   1.408   1_545  A
C895        C900   1.408   1_655  A
C896        C897   1.408       .  A
C896       Br907   1.930       .  S
C897        C898   1.414   1_565  A
C897       Br903   1.932       .  S
C898        C899   1.414   1_655  A
C899        C900   1.408       .  A
C899       Br908   1.932       .  S
C900       Br904   1.931       .  S
C909        C910   1.416   1_565  A
C909        C914   1.414   1_455  A
C910        C911   1.408       .  A
C910       Br922   1.933       .  S
C911        C912   1.407   1_545  A
C911       Br926   1.931       .  S
C912        C915   1.483       .  S
C912        C913   1.407   1_455  A
C913        C914   1.407       .  A
C913       Br921   1.931       .  S
C914       Br925   1.931       .  S
C915        C916   1.407   1_465  A
C915        C920   1.408       .  A
C916        C917   1.405       .  A
C916       Br927   1.930       .  S
C917        C918   1.414   1_645  A
C917       Br923   1.933       .  S
C918        C919   1.414       .  A
C919        C920   1.409       .  A
C919       Br928   1.931       .  S
C920       Br924   1.931       .  S
C929        C930   1.415       .  A
C929        C934   1.416       .  A
C930        C931   1.408       .  A
C930       Br942   1.932       .  S
C931        C932   1.408       .  A
C931       Br946   1.931       .  S
C932        C935   1.485       .  S
C932        C933   1.408       .  A
C933        C934   1.409       .  A
C933       Br941   1.931       .  S
C934       Br945   1.933       .  S
C935        C936   1.408       .  A
C935        C940   1.407       .  A
C936        C937   1.409       .  A
C936       Br947   1.931       .  S
C937        C938   1.416       .  A
C937       Br943   1.932       .  S
C938        C939   1.415       .  A
C939        C940   1.407       .  A
C939       Br948   1.933       .  S
C940       Br944   1.931       .  S
C949        C950   1.414       .  A
C949        C954   1.414       .  A
C950        C951   1.410       .  A
C950       Br962   1.931       .  S
C951        C952   1.409       .  A
C951       Br966   1.930       .  S
C952        C955   1.488       .  S
C952        C953   1.409       .  A
C953        C954   1.408       .  A
C953       Br961   1.931       .  S
C954       Br965   1.932       .  S
C955        C956   1.410       .  A
C955        C960   1.408       .  A
C956        C957   1.409       .  A
C956       Br967   1.930       .  S
C957        C958   1.413       .  A
C957       Br963   1.931       .  S
C958        C959   1.414       .  A
C959        C960   1.408       .  A
C959       Br968   1.933       .  S
C960       Br964   1.930       .  S
C969        C970   1.413       .  A
C969        C974   1.413       .  A
C970        C971   1.409       .  A
C970       Br982   1.931       .  S
C971        C972   1.409       .  A
C971       Br986   1.930       .  S
C972        C975   1.487       .  S
C972        C973   1.409       .  A
C973        C974   1.408       .  A
C973       Br981   1.930       .  S
C974       Br985   1.932       .  S
C975        C976   1.409       .  A
C975        C980   1.409       .  A
C976        C977   1.409       .  A
C976       Br987   1.930       .  S
C977        C978   1.412       .  A
C977       Br983   1.931       .  S
C978        C979   1.413       .  A
C979        C980   1.408       .  A
C979       Br988   1.932       .  S
C980       Br984   1.930       .  S
C989        C990   1.414       .  A
C989        C994   1.413   1_565  A
C990        C991   1.410       .  A
C990      Br1002   1.932       .  S
C991        C992   1.409       .  A
C991      Br1006   1.929       .  S
C992        C995   1.487       .  S
C992        C993   1.408   1_565  A
C993        C994   1.407       .  A
C993      Br1001   1.931       .  S
C994      Br1005   1.932       .  S
C995        C996   1.409       .  A
C995       C1000   1.408   1_565  A
C996        C997   1.410       .  A
C996      Br1007   1.930       .  S
C997        C998   1.415       .  A
C997      Br1003   1.931       .  S
C998        C999   1.415   1_565  A
C999       C1000   1.408       .  A
C999      Br1008   1.932       .  S
C1000     Br1004   1.931       .  S
C1009      C1010   1.414       .  A
C1009      C1014   1.414   1_655  A
C1010      C1011   1.412       .  A
C1010     Br1022   1.930       .  S
C1011      C1012   1.410       .  A
C1011     Br1026   1.929       .  S
C1012      C1015   1.495       .  S
C1012      C1013   1.410   1_655  A
C1013      C1014   1.412       .  A
C1013     Br1021   1.930       .  S
C1014     Br1025   1.930       .  S
C1015      C1016   1.411   1_655  A
C1015      C1020   1.410       .  A
C1016      C1017   1.412       .  A
C1016     Br1027   1.929       .  S
C1017      C1018   1.413   1_455  A
C1017     Br1023   1.932       .  S
C1018      C1019   1.415       .  A
C1019      C1020   1.411       .  A
C1019     Br1028   1.932       .  S
C1020     Br1024   1.929       .  S
C1029      C1030   1.415   1_655  A
C1029      C1034   1.416       .  A
C1030      C1031   1.408       .  A
C1030     Br1042   1.931       .  S
C1031      C1032   1.408   1_455  A
C1031     Br1046   1.931       .  S
C1032      C1035   1.486       .  S
C1032      C1033   1.407       .  A
C1033      C1034   1.409       .  A
C1033     Br1041   1.930       .  S
C1034     Br1045   1.932       .  S
C1035      C1036   1.408       .  A
C1035      C1040   1.409   1_655  A
C1036      C1037   1.408       .  A
C1036     Br1047   1.930       .  S
C1037      C1038   1.414       .  A
C1037     Br1043   1.932       .  S
C1038      C1039   1.413   1_655  A
C1039      C1040   1.409       .  A
C1039     Br1048   1.931       .  S
C1040     Br1044   1.930       .  S
C1049      C1050   1.418       .  A
C1049      C1054   1.418   1_655  A
C1050      C1051   1.409       .  A
C1050     Br1062   1.933       .  S
C1051      C1052   1.408       .  A
C1051     Br1066   1.931       .  S
C1052      C1055   1.487       .  S
C1052      C1053   1.407   1_655  A
C1053      C1054   1.409       .  A
C1053     Br1061   1.931       .  S
C1054     Br1065   1.933       .  S
C1055      C1056   1.411   1_655  A
C1055      C1060   1.410       .  A
C1056      C1057   1.409       .  A
C1056     Br1067   1.930       .  S
C1057      C1058   1.410       .  A
C1057     Br1063   1.930       .  S
C1058      C1059   1.410   1_455  A
C1059      C1060   1.407       .  A
C1059     Br1068   1.931       .  S
C1060     Br1064   1.930       .  S
C1069      C1070   1.418   1_465  A
C1069      C1074   1.419       .  A
C1070      C1071   1.411       .  A
C1070     Br1082   1.932       .  S
C1071      C1072   1.408   1_645  A
C1071     Br1086   1.931       .  S
C1072      C1075   1.491       .  S
C1072      C1073   1.407       .  A
C1073      C1074   1.411       .  A
C1073     Br1081   1.932       .  S
C1074     Br1085   1.932       .  S
C1075      C1076   1.410   1_565  A
C1075      C1080   1.410   1_455  A
C1076      C1077   1.410       .  A
C1076     Br1087   1.929       .  S
C1077      C1078   1.411   1_545  A
C1077     Br1083   1.930       .  S
C1078      C1079   1.413   1_455  A
C1079      C1080   1.409       .  A
C1079     Br1088   1.932       .  S
C1080     Br1084   1.929       .  S
C1089      C1090   1.415       .  A
C1089      C1094   1.415       .  A
C1090      C1091   1.407       .  A
C1090     Br1102   1.932       .  S
C1091      C1092   1.408       .  A
C1091     Br1106   1.932       .  S
C1092      C1095   1.485       .  S
C1092      C1093   1.409       .  A
C1093      C1094   1.408       .  A
C1093     Br1101   1.931       .  S
C1094     Br1105   1.933       .  S
C1095      C1096   1.407       .  A
C1095      C1100   1.404       .  A
C1096      C1097   1.411       .  A
C1096     Br1107   1.932       .  S
C1097      C1098   1.422       .  A
C1097     Br1103   1.934       .  S
C1098      C1099   1.424       .  A
C1099      C1100   1.407       .  A
C1099     Br1108   1.936       .  S
C1100     Br1104   1.935       .  S
C1109      C1110   1.416       .  A
C1109      C1114   1.417       .  A
C1110      C1111   1.408       .  A
C1110     Br1122   1.933       .  S
C1111      C1112   1.407       .  A
C1111     Br1126   1.931       .  S
C1112      C1115   1.485       .  S
C1112      C1113   1.407       .  A
C1113      C1114   1.409       .  A
C1113     Br1121   1.931       .  S
C1114     Br1125   1.932       .  S
C1115      C1116   1.409       .  A
C1115      C1120   1.409       .  A
C1116      C1117   1.407       .  A
C1116     Br1127   1.929       .  S
C1117      C1118   1.411       .  A
C1117     Br1123   1.931       .  S
C1118      C1119   1.411       .  A
C1119      C1120   1.408       .  A
C1119     Br1128   1.931       .  S
C1120     Br1124   1.930       .  S
C1129      C1130   1.415       .  A
C1129      C1134   1.414       .  A
C1130      C1131   1.410       .  A
C1130     Br1142   1.931       .  S
C1131      C1132   1.409       .  A
C1131     Br1146   1.930       .  S
C1132      C1135   1.489       .  S
C1132      C1133   1.409       .  A
C1133      C1134   1.409       .  A
C1133     Br1141   1.931       .  S
C1134     Br1145   1.932       .  S
C1135      C1136   1.410       .  A
C1135      C1140   1.409       .  A
C1136      C1137   1.408       .  A
C1136     Br1147   1.930       .  S
C1137      C1138   1.412       .  A
C1137     Br1143   1.931       .  S
C1138      C1139   1.414       .  A
C1139      C1140   1.410       .  A
C1139     Br1148   1.931       .  S
C1140     Br1144   1.930       .  S
C1149      C1150   1.418       .  A
C1149      C1154   1.421       .  A
C1150      C1151   1.411       .  A
C1150     Br1162   1.932       .  S
C1151      C1152   1.407       .  A
C1151     Br1166   1.930       .  S
C1152      C1155   1.490       .  S
C1152      C1153   1.407       .  A
C1153      C1154   1.410       .  A
C1153     Br1161   1.932       .  S
C1154     Br1165   1.934       .  S
C1155      C1156   1.410       .  A
C1155      C1160   1.410       .  A
C1156      C1157   1.408       .  A
C1156     Br1167   1.930       .  S
C1157      C1158   1.410       .  A
C1157     Br1163   1.931       .  S
C1158      C1159   1.411       .  A
C1159      C1160   1.410       .  A
C1159     Br1168   1.930       .  S
C1160     Br1164   1.928       .  S
C1169      C1170   1.413   1_545  A
C1169      C1174   1.414       .  A
C1170      C1171   1.408       .  A
C1170     Br1182   1.931       .  S
C1171      C1172   1.408   1_565  A
C1171     Br1186   1.930       .  S
C1172      C1175   1.486       .  S
C1172      C1173   1.408       .  A
C1173      C1174   1.408       .  A
C1173     Br1181   1.930       .  S
C1174     Br1185   1.932       .  S
C1175      C1176   1.409   1_545  A
C1175      C1180   1.407       .  A
C1176      C1177   1.409       .  A
C1176     Br1187   1.930       .  S
C1177      C1178   1.413       .  A
C1177     Br1183   1.931       .  S
C1178      C1179   1.414   1_565  A
C1179      C1180   1.407       .  A
C1179     Br1188   1.932       .  S
C1180     Br1184   1.930       .  S
C1189      C1190   1.412   1_545  A
C1189      C1194   1.410       .  A
C1190      C1191   1.407       .  A
C1190     Br1202   1.931       .  S
C1191      C1192   1.410   1_565  A
C1191     Br1206   1.931       .  S
C1192      C1195   1.487       .  S
C1192      C1193   1.410       .  A
C1193      C1194   1.408       .  A
C1193     Br1201   1.929       .  S
C1194     Br1205   1.931       .  S
C1195      C1196   1.409   1_545  A
C1195      C1200   1.408       .  A
C1196      C1197   1.408       .  A
C1196     Br1207   1.931       .  S
C1197      C1198   1.415   1_565  A
C1197     Br1203   1.933       .  S
C1198      C1199   1.416       .  A
C1199      C1200   1.409       .  A
C1199     Br1208   1.932       .  S
C1200     Br1204   1.931       .  S
C1209      C1210   1.411       .  A
C1209      C1214   1.410   1_455  A
C1210      C1211   1.411       .  A
C1210     Br1222   1.929       .  S
C1211      C1212   1.410       .  A
C1211     Br1226   1.929       .  S
C1212      C1215   1.490       .  S
C1212      C1213   1.410   1_455  A
C1213      C1214   1.409       .  A
C1213     Br1221   1.930       .  S
C1214     Br1225   1.928       .  S
C1215      C1216   1.410   1_455  A
C1215      C1220   1.410       .  A
C1216      C1217   1.410       .  A
C1216     Br1227   1.929       .  S
C1217      C1218   1.410   1_655  A
C1217     Br1223   1.930       .  S
C1218      C1219   1.410       .  A
C1219      C1220   1.409       .  A
C1219     Br1228   1.931       .  S
C1220     Br1224   1.928       .  S
C1229      C1230   1.416   1_655  A
C1229      C1234   1.417       .  A
C1230      C1231   1.413       .  A
C1230     Br1242   1.932       .  S
C1231      C1232   1.410   1_455  A
C1231     Br1246   1.930       .  S
C1232      C1235   1.494       .  S
C1232      C1233   1.408       .  A
C1233      C1234   1.411       .  A
C1233     Br1241   1.930       .  S
C1234     Br1245   1.932       .  S
C1235      C1236   1.410       .  A
C1235      C1240   1.411   1_655  A
C1236      C1237   1.412       .  A
C1236     Br1247   1.929       .  S
C1237      C1238   1.413       .  A
C1237     Br1243   1.931       .  S
C1238      C1239   1.412   1_655  A
C1239      C1240   1.411       .  A
C1239     Br1248   1.930       .  S
C1240     Br1244   1.930       .  S
C1249      C1250   1.422   1_455  A
C1249      C1254   1.423       .  A
C1250      C1251   1.409       .  A
C1250     Br1262   1.934       .  S
C1251      C1252   1.405       .  A
C1251     Br1266   1.933       .  S
C1252      C1255   1.486       .  S
C1252      C1253   1.406   1_655  A
C1253      C1254   1.410       .  A
C1253     Br1261   1.933       .  S
C1254     Br1265   1.934       .  S
C1255      C1256   1.409   1_655  A
C1255      C1260   1.409       .  A
C1256      C1257   1.407       .  A
C1256     Br1267   1.931       .  S
C1257      C1258   1.412   1_455  A
C1257     Br1263   1.932       .  S
C1258      C1259   1.413       .  A
C1259      C1260   1.408       .  A
C1259     Br1268   1.933       .  S
C1260     Br1264   1.929       .  S
C1269      C1270   1.413       .  A
C1269      C1274   1.413   1_455  A
C1270      C1271   1.409       .  A
C1270     Br1282   1.929       .  S
C1271      C1272   1.409       .  A
C1271     Br1286   1.930       .  S
C1272      C1275   1.486       .  S
C1272      C1273   1.408   1_455  A
C1273      C1274   1.407       .  A
C1273     Br1281   1.930       .  S
C1274     Br1285   1.932       .  S
C1275      C1276   1.407   1_455  A
C1275      C1280   1.406       .  A
C1276      C1277   1.409       .  A
C1276     Br1287   1.932       .  S
C1277      C1278   1.417   1_655  A
C1277     Br1283   1.932       .  S
C1278      C1279   1.419       .  A
C1279      C1280   1.408       .  A
C1279     Br1288   1.934       .  S
C1280     Br1284   1.931       .  S
C1289      C1290   1.413   1_445  A
C1289      C1294   1.412       .  A
C1290      C1291   1.410       .  A
C1290     Br1302   1.929       .  S
C1291      C1292   1.410   1_655  A
C1291     Br1306   1.930       .  S
C1292      C1295   1.492       .  S
C1292      C1293   1.411   1_565  A
C1293      C1294   1.411       .  A
C1293     Br1301   1.929       .  S
C1294     Br1305   1.930       .  S
C1295      C1296   1.412       .  A
C1295      C1300   1.411   1_465  A
C1296      C1297   1.412       .  A
C1296     Br1307   1.928       .  S
C1297      C1298   1.411       .  A
C1297     Br1303   1.930       .  S
C1298      C1299   1.409   1_465  A
C1299      C1300   1.408       .  A
C1299     Br1308   1.930       .  S
C1300     Br1304   1.930       .  S
C1309      C1310   1.413   1_645  A
C1309      C1314   1.412       .  A
C1310      C1311   1.411       .  A
C1310     Br1322   1.931       .  S
C1311      C1312   1.410   1_465  A
C1311     Br1326   1.929       .  S
C1312      C1315   1.494       .  S
C1312      C1313   1.410       .  A
C1313      C1314   1.411       .  A
C1313     Br1321   1.929       .  S
C1314     Br1325   1.930       .  S
C1315      C1316   1.408   1_545  A
C1315      C1320   1.407   1_655  A
C1316      C1317   1.412       .  A
C1316     Br1327   1.931       .  S
C1317      C1318   1.420   1_565  A
C1317     Br1323   1.932       .  S
C1318      C1319   1.420   1_655  A
C1319      C1320   1.412       .  A
C1319     Br1328   1.932       .  S
C1320     Br1324   1.930       .  S
C1329      C1330   1.412       .  A
C1329      C1334   1.413       .  A
C1330      C1331   1.410       .  A
C1330     Br1342   1.931       .  S
C1331      C1332   1.410       .  A
C1331     Br1346   1.929       .  S
C1332      C1335   1.488       .  S
C1332      C1333   1.408       .  A
C1333      C1334   1.407       .  A
C1333     Br1341   1.930       .  S
C1334     Br1345   1.932       .  S
C1335      C1336   1.404       .  A
C1335      C1340   1.403       .  A
C1336      C1337   1.411       .  A
C1336     Br1347   1.935       .  S
C1337      C1338   1.427       .  A
C1337     Br1343   1.932       .  S
C1338      C1339   1.428       .  A
C1339      C1340   1.411       .  A
C1339     Br1348   1.933       .  S
C1340     Br1344   1.934       .  S
C1349      C1350   1.415       .  A
C1349      C1354   1.414   1_545  A
C1350      C1351   1.413       .  A
C1350     Br1362   1.931       .  S
C1351      C1352   1.410       .  A
C1351     Br1366   1.929       .  S
C1352      C1355   1.495       .  S
C1352      C1353   1.410   1_545  A
C1353      C1354   1.410       .  A
C1353     Br1361   1.930       .  S
C1354     Br1365   1.932       .  S
C1355      C1356   1.408       .  A
C1355      C1360   1.410   1_545  A
C1356      C1357   1.411       .  A
C1356     Br1367   1.930       .  S
C1357      C1358   1.418       .  A
C1357     Br1363   1.932       .  S
C1358      C1359   1.416   1_545  A
C1359      C1360   1.413       .  A
C1359     Br1368   1.931       .  S
C1360     Br1364   1.930       .  S
C1369      C1370   1.416       .  A
C1369      C1374   1.417       .  A
C1370      C1371   1.410       .  A
C1370     Br1382   1.932       .  S
C1371      C1372   1.408       .  A
C1371     Br1386   1.931       .  S
C1372      C1375   1.489       .  S
C1372      C1373   1.408       .  A
C1373      C1374   1.410       .  A
C1373     Br1381   1.930       .  S
C1374     Br1385   1.932       .  S
C1375      C1376   1.410       .  A
C1375      C1380   1.409       .  A
C1376      C1377   1.411       .  A
C1376     Br1387   1.929       .  S
C1377      C1378   1.413       .  A
C1377     Br1383   1.931       .  S
C1378      C1379   1.413       .  A
C1379      C1380   1.408       .  A
C1379     Br1388   1.932       .  S
C1380     Br1384   1.930       .  S
C1389      C1390   1.412       .  A
C1389      C1394   1.413       .  A
C1390      C1391   1.410       .  A
C1390     Br1402   1.930       .  S
C1391      C1392   1.410       .  A
C1391     Br1406   1.930       .  S
C1392      C1395   1.492       .  S
C1392      C1393   1.410       .  A
C1393      C1394   1.411       .  A
C1393     Br1401   1.930       .  S
C1394     Br1405   1.931       .  S
C1395      C1396   1.409       .  A
C1395      C1400   1.408       .  A
C1396      C1397   1.411       .  A
C1396     Br1407   1.932       .  S
C1397      C1398   1.417       .  A
C1397     Br1403   1.932       .  S
C1398      C1399   1.417       .  A
C1399      C1400   1.410       .  A
C1399     Br1408   1.934       .  S
C1400     Br1404   1.930       .  S
C1409      C1410   1.409   1_655  A
C1409      C1414   1.409       .  A
C1410      C1411   1.406       .  A
C1410     Br1422   1.930       .  S
C1411      C1412   1.409   1_455  A
C1411     Br1426   1.929       .  S
C1412      C1415   1.480       .  S
C1412      C1413   1.409       .  A
C1413      C1414   1.405       .  A
C1413     Br1421   1.930       .  S
C1414     Br1425   1.929       .  S
C1415      C1416   1.402       .  A
C1415      C1420   1.403       .  A
C1416      C1417   1.405       .  A
C1416     Br1427   1.937   1_655  S
C1417      C1418   1.427       .  A
C1417     Br1423   1.936   1_655  S
C1418      C1419   1.428       .  A
C1419      C1420   1.410       .  A
C1419     Br1428   1.935       .  S
C1420     Br1424   1.934       .  S
C1429      C1430   1.417       .  A
C1429      C1434   1.417   1_545  A
C1430      C1431   1.412       .  A
C1430     Br1442   1.930       .  S
C1431      C1432   1.409       .  A
C1431     Br1446   1.930       .  S
C1432      C1435   1.493       .  S
C1432      C1433   1.409   1_545  A
C1433      C1434   1.411       .  A
C1433     Br1441   1.930       .  S
C1434     Br1445   1.933       .  S
C1435      C1436   1.410       .  A
C1435      C1440   1.409   1_545  A
C1436      C1437   1.413       .  A
C1436     Br1447   1.930       .  S
C1437      C1438   1.416       .  A
C1437     Br1443   1.932       .  S
C1438      C1439   1.414   1_545  A
C1439      C1440   1.410       .  A
C1439     Br1448   1.931       .  S
C1440     Br1444   1.930       .  S
C1449      C1450   1.419       .  A
C1449      C1454   1.417   1_565  A
C1450      C1451   1.411       .  A
C1450     Br1462   1.933       .  S
C1451      C1452   1.408       .  A
C1451     Br1466   1.930       .  S
C1452      C1455   1.488       .  S
C1452      C1453   1.407   1_565  A
C1453      C1454   1.408       .  A
C1453     Br1461   1.932       .  S
C1454     Br1465   1.933       .  S
C1455      C1456   1.408       .  A
C1455      C1460   1.408   1_565  A
C1456      C1457   1.410       .  A
C1456     Br1467   1.930       .  S
C1457      C1458   1.416       .  A
C1457     Br1463   1.932       .  S
C1458      C1459   1.415   1_565  A
C1459      C1460   1.409       .  A
C1459     Br1468   1.931       .  S
C1460     Br1464   1.931       .  S
C1469      C1470   1.409   1_455  A
C1469      C1474   1.411   1_545  A
C1470      C1471   1.407       .  A
C1470     Br1482   1.930       .  S
C1471      C1472   1.410   1_655  A
C1471     Br1486   1.930       .  S
C1472      C1475   1.484       .  S
C1472      C1473   1.409   1_545  A
C1473      C1474   1.407       .  A
C1473     Br1481   1.930       .  S
C1474     Br1485   1.931       .  S
C1475      C1476   1.407       .  A
C1475      C1480   1.408   1_445  A
C1476      C1477   1.408       .  A
C1476     Br1487   1.931       .  S
C1477      C1478   1.416       .  A
C1477     Br1483   1.932       .  S
C1478      C1479   1.416   1_445  A
C1479      C1480   1.407       .  A
C1479     Br1488   1.933       .  S
C1480     Br1484   1.931       .  S
C1489      C1490   1.416       .  A
C1489      C1494   1.416       .  A
C1490      C1491   1.406       .  A
C1490     Br1502   1.933       .  S
C1491      C1492   1.406       .  A
C1491     Br1506   1.932       .  S
C1492      C1495   1.484       .  S
C1492      C1493   1.408       .  A
C1493      C1494   1.410       .  A
C1493     Br1501   1.931       .  S
C1494     Br1505   1.931       .  S
C1495      C1496   1.405       .  A
C1495      C1500   1.404       .  A
C1496      C1497   1.410       .  A
C1496     Br1507   1.933       .  S
C1497      C1498   1.423       .  A
C1497     Br1503   1.929       .  S
C1498      C1499   1.421       .  A
C1499      C1500   1.407       .  A
C1499     Br1508   1.929       .  S
C1500     Br1504   1.934       .  S
C1509      C1510   1.413       .  A
C1509      C1514   1.414       .  A
C1510      C1511   1.409       .  A
C1510     Br1522   1.932       .  S
C1511      C1512   1.409       .  A
C1511     Br1526   1.930       .  S
C1512      C1515   1.488       .  S
C1512      C1513   1.409       .  A
C1513      C1514   1.409       .  A
C1513     Br1521   1.930       .  S
C1514     Br1525   1.931       .  S
C1515      C1516   1.408       .  A
C1515      C1520   1.409       .  A
C1516      C1517   1.408       .  A
C1516     Br1527   1.931       .  S
C1517      C1518   1.415       .  A
C1517     Br1523   1.932       .  S
C1518      C1519   1.415       .  A
C1519      C1520   1.410       .  A
C1519     Br1528   1.932       .  S
C1520     Br1524   1.930       .  S
C1529      C1530   1.413       .  A
C1529      C1534   1.414       .  A
C1530      C1531   1.408       .  A
C1530     Br1542   1.931       .  S
C1531      C1532   1.408       .  A
C1531     Br1546   1.930       .  S
C1532      C1535   1.484       .  S
C1532      C1533   1.408       .  A
C1533      C1534   1.407       .  A
C1533     Br1541   1.932       .  S
C1534     Br1545   1.931       .  S
C1535      C1536   1.406       .  A
C1535      C1540   1.406       .  A
C1536      C1537   1.408       .  A
C1536     Br1547   1.932       .  S
C1537      C1538   1.418       .  A
C1537     Br1543   1.926       .  S
C1538      C1539   1.417       .  A
C1539      C1540   1.407       .  A
C1539     Br1548   1.933       .  S
C1540     Br1544   1.931       .  S
C1549      C1550   1.412       .  A
C1549      C1554   1.413       .  A
C1550      C1551   1.407       .  A
C1550     Br1562   1.932       .  S
C1551      C1552   1.408       .  A
C1551     Br1566   1.930       .  S
C1552      C1555   1.484       .  S
C1552      C1553   1.408       .  A
C1553      C1554   1.407       .  A
C1553     Br1561   1.930       .  S
C1554     Br1565   1.931       .  S
C1555      C1556   1.406       .  A
C1555      C1560   1.405       .  A
C1556      C1557   1.409       .  A
C1556     Br1567   1.931       .  S
C1557      C1558   1.419       .  A
C1557     Br1563   1.934       .  S
C1558      C1559   1.421       .  A
C1559      C1560   1.408       .  A
C1559     Br1568   1.928       .  S
C1560     Br1564   1.933       .  S
C1569      C1570   1.411       .  A
C1569      C1574   1.413   1_565  A
C1570      C1571   1.411       .  A
C1570     Br1582   1.930       .  S
C1571      C1572   1.410       .  A
C1571     Br1586   1.929       .  S
C1572      C1575   1.492       .  S
C1572      C1573   1.410   1_565  A
C1573      C1574   1.410       .  A
C1573     Br1581   1.929       .  S
C1574     Br1585   1.932       .  S
C1575      C1576   1.410       .  A
C1575      C1580   1.410   1_565  A
C1576      C1577   1.411       .  A
C1576     Br1587   1.930       .  S
C1577      C1578   1.413   1_565  A
C1577     Br1583   1.930       .  S
C1578      C1579   1.411       .  A
C1579      C1580   1.411       .  A
C1579     Br1588   1.929       .  S
C1580     Br1584   1.929       .  S
C1589      C1590   1.415       .  A
C1589      C1594   1.415   1_565  A
C1590      C1591   1.409       .  A
C1590     Br1602   1.931       .  S
C1591      C1592   1.408       .  A
C1591     Br1606   1.931       .  S
C1592      C1595   1.490       .  S
C1592      C1593   1.409   1_565  A
C1593      C1594   1.411       .  A
C1593     Br1601   1.930       .  S
C1594     Br1605   1.932       .  S
C1595      C1596   1.409       .  A
C1595      C1600   1.410   1_565  A
C1596      C1597   1.408       .  A
C1596     Br1607   1.930       .  S
C1597      C1598   1.414       .  A
C1597     Br1603   1.933       .  S
C1598      C1599   1.412   1_565  A
C1599      C1600   1.411       .  A
C1599     Br1608   1.930       .  S
C1600     Br1604   1.929       .  S
C1609      C1610   1.417       .  A
C1609      C1614   1.416   1_655  A
C1610      C1611   1.411       .  A
C1610     Br1622   1.931       .  S
C1611      C1612   1.408       .  A
C1611     Br1626   1.931       .  S
C1612      C1615   1.488       .  S
C1612      C1613   1.408   1_655  A
C1613      C1614   1.409       .  A
C1613     Br1621   1.932       .  S
C1614     Br1625   1.931       .  S
C1615      C1616   1.410       .  A
C1615      C1620   1.411   1_655  A
C1616      C1617   1.407       .  A
C1616     Br1627   1.929       .  S
C1617      C1618   1.410       .  A
C1617     Br1623   1.932       .  S
C1618      C1619   1.410   1_655  A
C1619      C1620   1.409       .  A
C1619     Br1628   1.932       .  S
C1620     Br1624   1.929       .  S
C1629      C1630   1.428   1_455  A
C1629      C1634   1.428       .  A
C1630      C1631   1.413       .  A
C1630     Br1642   1.935       .  S
C1631      C1632   1.406   1_655  A
C1631     Br1646   1.934       .  S
C1632      C1635   1.497       .  S
C1632      C1633   1.406       .  A
C1633      C1634   1.415       .  A
C1633     Br1641   1.933       .  S
C1634     Br1645   1.935       .  S
C1635      C1636   1.412       .  A
C1635      C1640   1.411   1_455  A
C1636      C1637   1.412       .  A
C1636     Br1647   1.929       .  S
C1637      C1638   1.412       .  A
C1637     Br1643   1.930       .  S
C1638      C1639   1.413   1_455  A
C1639      C1640   1.412       .  A
C1639     Br1648   1.930       .  S
C1640     Br1644   1.930       .  S
C1649      C1650   1.419   1_455  A
C1649      C1654   1.423       .  A
C1650      C1651   1.406       .  A
C1650     Br1662   1.928       .  S
C1651      C1652   1.404   1_655  A
C1651     Br1666   1.935       .  S
C1652      C1655   1.482       .  S
C1652      C1653   1.405       .  A
C1653      C1654   1.410       .  A
C1653     Br1661   1.931       .  S
C1654     Br1665   1.934       .  S
C1655      C1656   1.409   1_455  A
C1655      C1660   1.407       .  A
C1656      C1657   1.408       .  A
C1656     Br1667   1.929       .  S
C1657      C1658   1.412       .  A
C1657     Br1663   1.931       .  S
C1658      C1659   1.410   1_655  A
C1659      C1660   1.404       .  A
C1659     Br1668   1.927       .  S
C1660     Br1664   1.931       .  S
C1669      C1670   1.410       .  A
C1669      C1674   1.411   1_655  A
C1670      C1671   1.408       .  A
C1670     Br1682   1.925       .  S
C1671      C1672   1.409   1_655  A
C1671     Br1686   1.930       .  S
C1672      C1675   1.488       .  S
C1672      C1673   1.410       .  A
C1673      C1674   1.409       .  A
C1673     Br1681   1.929       .  S
C1674     Br1685   1.931       .  S
C1675      C1676   1.404   1_455  A
C1675      C1680   1.407       .  A
C1676      C1677   1.409       .  A
C1676     Br1687   1.933       .  S
C1677      C1678   1.425   1_655  A
C1677     Br1683   1.934       .  S
C1678      C1679   1.420       .  A
C1679      C1680   1.411       .  A
C1679     Br1688   1.930       .  S
C1680     Br1684   1.933       .  S
C1689      C1690   1.408   1_565  A
C1689      C1694   1.409       .  A
C1690      C1691   1.409       .  A
C1690     Br1702   1.929       .  S
C1691      C1692   1.412   1_545  A
C1691     Br1706   1.930       .  S
C1692      C1695   1.491       .  S
C1692      C1693   1.412       .  A
C1693      C1694   1.410       .  A
C1693     Br1701   1.930   1_455  S
C1694     Br1705   1.928   1_455  S
C1695      C1696   1.413   1_565  A
C1695      C1700   1.412   1_455  A
C1696      C1697   1.409       .  A
C1696     Br1707   1.930       .  S
C1697      C1698   1.409       .  A
C1697     Br1703   1.930       .  S
C1698      C1699   1.408   1_445  A
C1699      C1700   1.409       .  A
C1699     Br1708   1.928       .  S
C1700     Br1704   1.930       .  S
C1709      C1710   1.415       .  A
C1709      C1714   1.414   1_465  A
C1710      C1711   1.409       .  A
C1710     Br1722   1.931       .  S
C1711      C1712   1.409       .  A
C1711     Br1726   1.930       .  S
C1712      C1715   1.491       .  S
C1712      C1713   1.410   1_465  A
C1713      C1714   1.410       .  A
C1713     Br1721   1.930       .  S
C1714     Br1725   1.932       .  S
C1715      C1716   1.405   1_455  A
C1715      C1720   1.406   1_565  A
C1716      C1717   1.411       .  A
C1716     Br1727   1.933       .  S
C1717      C1718   1.422   1_655  A
C1717     Br1723   1.926       .  S
C1718      C1719   1.423   1_565  A
C1719      C1720   1.411       .  A
C1719     Br1728   1.931       .  S
C1720     Br1724   1.933       .  S
