geometry optimzed in LAMMPS
_audit_creation_date              2020-11-30 
_audit_creation_method            'lammps2cif' 
_symmetry_space_group_name_H-M    'P1' 
_symmetry_Int_Tables_number       1 
_symmetry_cell_setting            triclinic 
loop_ 
_symmetry_equiv_pos_as_xyz 
  x,y,z 
_cell_length_a                    40.91456302 
_cell_length_b                    39.43609612129244 
_cell_length_c                    81.16386738533402 
_cell_angle_alpha                 89.58814631182337 
_cell_angle_beta                  90.08754361591774 
_cell_angle_gamma                 121.6695882440097 
loop_ 
_atom_site_label 
_atom_site_type_symbol 
_atom_site_fract_x 
_atom_site_fract_y 
_atom_site_fract_z 
_atom_site_charge 
C1          C  0.30705538  0.31168602  0.11625330     0.03200
C2          C  0.33546791  0.30657983  0.12344418    -0.13000
C3          C  0.36175715  0.33437786  0.13475234     0.00700
C4          C  0.35942229  0.36769110  0.13867104    -0.11500
C5          C  0.33160624  0.37356833  0.13142424     0.03200
C6          C  0.30511382  0.34513382  0.12040676    -0.10900
H7          H  0.33720950  0.28103459  0.12010174     0.08800
H8          H  0.37885375  0.38890916  0.14766204     0.06300
H9          H  0.28388343  0.34978538  0.11461258     0.06100
C10         C  0.67114410  0.35536356  0.23168699     0.45500
H11         H  0.67155463  0.35832459  0.24530420    -0.03500
C12         C  0.67045024  0.34899954  0.19973248     0.45500
H13         H  0.67044945  0.34613754  0.18612543    -0.03500
C14         C  0.70431851  0.39206661  0.22296060    -0.17200
C15         C  0.67440875  0.32032934  0.22586658    -0.17000
C16         C  0.63467611  0.34972826  0.22352243    -0.17400
C17         C  0.70371651  0.38860009  0.20613789    -0.17300
C18         C  0.67390209  0.31694720  0.20901317    -0.16900
C19         C  0.63410605  0.34605525  0.20664028    -0.17200
C20         C  0.33933866  0.67816298  0.23105415     0.45500
H21         H  0.33736576  0.67533557  0.24469941    -0.03500
C22         C  0.34465373  0.68526825  0.19907114     0.45500
H23         H  0.34672536  0.68847895  0.18544478    -0.03500
C24         C  0.33310449  0.64074368  0.22229382    -0.17200
C25         C  0.31053643  0.68730509  0.22328345    -0.17000
C26         C  0.37865432  0.71209139  0.22496075    -0.17400
C27         C  0.33481177  0.64411857  0.20535980    -0.17300
C28         C  0.31327097  0.69087123  0.20637511    -0.16900
C29         C  0.38162142  0.71564514  0.20807724    -0.17200
C30         C  0.01947846  0.72346999  0.11835241     0.03200
C31         C  0.05341315  0.73194519  0.12648891    -0.13000
C32         C  0.05276802  0.70544407  0.13830054     0.00700
C33         C  0.01807701  0.66996680  0.14175679    -0.11500
C34         C  0.98407756  0.66072244  0.13371966     0.03200
C35         C  0.98481991  0.68775980  0.12214632    -0.10900
H36         H  0.08015950  0.75961828  0.12398581     0.08800
H37         H  0.01752639  0.64938584  0.15084063     0.06300
H38         H  0.95861072  0.68044398  0.11580721     0.06100
C39         C  0.73209947  0.02457803  0.12472507     0.03200
C40         C  0.73566924  0.05949015  0.13107569    -0.13000
C41         C  0.70773437  0.05740426  0.14173978     0.00700
C42         C  0.67649530  0.01998541  0.14632405    -0.11500
C43         C  0.67245277  0.98483819  0.14021145     0.03200
C44         C  0.70048363  0.98721819  0.12948388    -0.10900
H45         H  0.75919921  0.08838217  0.12708296     0.08800
H46         H  0.65516806  0.01814192  0.15480456     0.06300
H47         H  0.69727826  0.96012107  0.12461722     0.06100
C48         C  0.01775587  0.70723481  0.31963023     0.03200
C49         C  0.05279325  0.71413894  0.31334353    -0.13000
C50         C  0.05314902  0.69087408  0.30040600     0.00700
C51         C  0.01823926  0.66060568  0.29381955    -0.11500
C52         C  0.98310988  0.65341150  0.29989627     0.03200
C53         C  0.98306923  0.67666917  0.31286837    -0.10900
H54         H  0.07968965  0.73751795  0.31848392     0.08800
H55         H  0.01842017  0.64202658  0.28408705     0.06300
H56         H  0.95598333  0.67177774  0.31736341     0.06100
C57         C  0.68903657  0.01792240  0.32454225     0.03200
C58         C  0.69515230  0.05501730  0.31927783    -0.13000
C59         C  0.66882227  0.05682668  0.30872503     0.00700
C60         C  0.63655839  0.02126712  0.30327447    -0.11500
C61         C  0.63011437  0.98413893  0.30823149     0.03200
C62         C  0.65660270  0.98267015  0.31874280    -0.10900
H63         H  0.71952989  0.08244280  0.32383174     0.08800
H64         H  0.61658343  0.02251759  0.29487767     0.06300
H65         H  0.65173289  0.95394938  0.32248488     0.06100
C66         C  0.31381993  0.31384612  0.31935082     0.03200
C67         C  0.34433003  0.31096835  0.31307350    -0.13000
C68         C  0.36834803  0.33706310  0.30063360     0.00700
C69         C  0.36201456  0.36662473  0.29468821    -0.11500
C70         C  0.33184282  0.37010130  0.30077101     0.03200
C71         C  0.30773545  0.34347119  0.31306722    -0.10900
H72         H  0.34928177  0.28829148  0.31780089     0.08800
H73         H  0.38055197  0.38690365  0.28512217     0.06300
H74         H  0.28424199  0.34583723  0.31774965     0.06100
Zr75       Zr  0.99461758  0.00818651  0.49837815     2.17500
O76         O  0.98974678  0.97196096  0.52367807    -0.51300
O77         O  0.99589532  0.06106889  0.51419010    -0.74500
O78         O  0.05662203  0.03052504  0.51101549    -0.81300
O79         O  0.88583656  0.94300216  0.49273797    -0.83000
O80         O  0.10356343  0.05585548  0.49153496    -0.78700
O81         O  0.93336754  0.96299960  0.51169201    -0.90300
O82         O  0.99771109  0.10623233  0.49617472    -0.76200
O83         O  0.03689265  0.06773073  0.48342275    -0.85700
O84         O  0.95429557  0.02475587  0.48374418    -0.85400
O85         O  0.03123536  0.99136028  0.48081085    -0.72200
O86         O  0.95465298  0.95199084  0.48122325    -0.84300
Zr87       Zr  0.99322248  0.01142513  0.43291673     2.26400
Zr88       Zr  0.07241938  0.05106962  0.46522691     2.06300
Zr89       Zr  0.91556501  0.96963025  0.46606071     2.10000
Zr90       Zr  0.99649252  0.08339231  0.46843130     1.78800
O91         O  0.86658596  0.90008707  0.46131627    -0.93100
O92         O  0.05418995  0.14974384  0.46835039    -0.40900
O93         O  0.95726331  0.02869436  0.45062749    -0.77600
O94         O  0.03284922  0.06842939  0.44998018    -0.96300
O95         O  0.03340725  0.99529852  0.44781888    -0.89600
O96         O  0.95075794  0.95226673  0.44804627    -0.92400
C97         C  0.99689229  0.09347507  0.51084395     1.01400
C98         C  0.89786412  0.94354641  0.50741527     1.14300
C99         C  0.09172955  0.04591623  0.50648212     1.05100
O100        O  0.12045784  0.12133816  0.46903200    -0.94600
O101        O  0.10272591  0.07716522  0.43841842    -0.90300
O102        O  0.05512851  0.05127220  0.41935400    -0.83400
C103        C  0.09055358  0.07291290  0.42350096     1.11700
O104        O  0.98543256  0.89358538  0.48612418    -0.96500
Zr105      Zr  0.99122387  0.93672017  0.46319514     1.88900
O106        O  0.99284001  0.95817757  0.41742484    -0.73200
O107        O  0.11937179  0.03198361  0.46038990    -0.52400
O108        O  0.04621604  0.92851276  0.46435078    -0.97100
O109        O  0.93571406  0.86933034  0.46017628    -0.54300
O110        O  0.99713719  0.91722538  0.43585559    -0.73700
C111        C  0.99618942  0.92834701  0.42109586     0.98600
O112        O  0.99062867  0.04373488  0.40759462    -0.62500
O113        O  0.86691348  0.98681327  0.47003896    -0.57300
O114        O  0.93276984  0.99495529  0.42016165    -0.94000
O115        O  0.88682414  0.97052542  0.44006995    -0.92400
O116        O  0.94342525  0.09443402  0.47044068    -0.92800
O117        O  0.99302890  0.12394467  0.44653588    -0.91600
C118        C  0.89819471  0.98120052  0.42515587     1.17500
H119        H  0.93847299  0.02903448  0.49116830     0.33400
H120        H  0.04842583  0.09185335  0.44325031     0.44300
H121        H  0.93370392  0.93096900  0.44075686     0.37800
H122        H  0.04611189  0.98356513  0.48724057     0.34300
H123        H  0.04503716  0.16776533  0.47119120     0.26100
H124        H  0.14456485  0.05665514  0.46225742     0.32000
H125        H  0.06256856  0.94420270  0.45488933     0.37900
H126        H  0.92061299  0.06896955  0.46694288     0.32400
H127        H  0.84287270  0.96113162  0.47235719     0.31300
H128        H  0.84218766  0.89965786  0.46078468     0.32900
H129        H  0.92667244  0.86784415  0.44873352     0.31900
H130        H  0.00233776  0.11719501  0.43657396     0.35900
H131        H  0.00969454  0.07252348  0.40895066     0.28600
H132        H  0.00316850  0.99242316  0.53227028     0.32900
H133        H  0.98721093  0.87172765  0.48117366     0.35700
H134        H  0.87339997  0.00125070  0.48061670     0.28300
H135        H  0.00115545  0.03484833  0.39879899     0.41200
H136        H  0.11471667  0.13538675  0.46042867     0.31300
H137        H  0.06871346  0.15010593  0.47818449     0.38900
H138        H  0.91553160  0.86875110  0.46710587     0.30700
H139        H  0.11628529  0.01428488  0.46974891     0.30800
H140        H  0.00587809  0.96042246  0.52187054     0.31100
Zr141      Zr  0.99903603  0.01209147  0.93271973     2.17500
O142        O  0.02081529  0.04204201  0.90541052    -0.51300
O143        O  0.94910917  0.95792276  0.91627878    -0.74500
O144        O  0.04737132  0.00110086  0.92056496    -0.81300
O145        O  0.95163035  0.07330792  0.93926851    -0.83000
O146        O  0.06939336  0.97644021  0.94003106    -0.78700
O147        O  0.98573031  0.06049225  0.92097749    -0.90300
O148        O  0.90727647  0.90881634  0.93351242    -0.76200
O149        O  0.98591039  0.95331498  0.94709013    -0.85700
O150        O  0.93962605  0.98885930  0.94672596    -0.85400
O151        O  0.05297986  0.03370572  0.95094648    -0.72200
O152        O  0.00944772  0.06487524  0.95078423    -0.84300
Zr153      Zr  0.99024767  0.00277386  0.99814846     2.26400
Zr154      Zr  0.03852322  0.97440001  0.96584307     2.06300
Zr155      Zr  0.95021047  0.04075872  0.96519963     2.10000
Zr156      Zr  0.92716412  0.93085481  0.96143162     1.78800
O157        O  0.95895365  0.10590805  0.96998673    -0.93100
O158        O  0.92248681  0.86673521  0.95990195    -0.40900
O159        O  0.93642783  0.98204547  0.98009618    -0.77600
O160        O  0.97901473  0.94952369  0.98018868    -0.96300
O161        O  0.04931779  0.02660364  0.98405560    -0.89600
O162        O  0.00278637  0.06123062  0.98370609    -0.92400
C163        C  0.91894543  0.92359376  0.91907752     1.01400
C164        C  0.96759359  0.07761269  0.92512643     1.14300
C165        C  0.06902417  0.98830532  0.92529783     1.05100
O166        O  0.02446479  0.90724037  0.96085745    -0.94600
O167        O  0.04316118  0.94766284  0.99241076    -0.90300
O168        O  0.01759817  0.96830547  0.01185411    -0.83400
C169        C  0.03382389  0.94941968  0.00738431     1.11700
O170        O  0.09870484  0.13296123  0.94787037    -0.96500
Zr171      Zr  0.06151994  0.08460139  0.96948951     1.88900
O172        O  0.03949129  0.05597632  0.01507013    -0.73200
O173        O  0.10602089  0.00055748  0.97180977    -0.52400
O174        O  0.12739863  0.09969658  0.96967548    -0.97100
O175        O  0.06540089  0.14819051  0.97213846    -0.54300
O176        O  0.08247435  0.10404655  0.99766903    -0.73700
C177        C  0.07043088  0.08965561  0.01216457     0.98600
O178        O  0.94998692  0.95800113  0.02034857    -0.62500
O179        O  0.88170661  0.00991219  0.96006400    -0.57300
O180        O  0.95114671  0.02414012  0.01146786    -0.94000
O181        O  0.92366169  0.04254137  0.99183100    -0.92400
O182        O  0.86146177  0.91558334  0.95902549    -0.92800
O183        O  0.88557511  0.88434561  0.98274310    -0.91600
C184        C  0.92865275  0.03595631  0.00689239     1.17500
H185        H  0.91914521  0.98321550  0.93912406     0.33400
H186        H  0.97282710  0.92610415  0.98656174     0.44300
H187        H  0.00493415  0.08120935  0.99116545     0.37800
H188        H  0.07675158  0.04479747  0.94494791     0.34300
H189        H  0.89563048  0.84765167  0.95656353     0.26100
H190        H  0.11006053  0.97864333  0.96896059     0.32000
H191        H  0.12817565  0.08335017  0.97880468     0.37900
H192        H  0.84668024  0.88786422  0.95494134     0.32400
H193        H  0.86910474  0.99094748  0.96934479     0.31300
H194        H  0.93363204  0.10240588  0.96756752     0.32900
H195        H  0.06300801  0.15145369  0.98407150     0.31900
H196        H  0.90145843  0.89275783  0.99283918     0.35900
H197        H  0.92373296  0.95210512  0.01805416     0.28600
H198        H  0.01601130  0.02006069  0.89799105     0.32900
H199        H  0.12185667  0.15461704  0.95337083     0.35700
H200        H  0.87642161  0.03130046  0.96214658     0.28300
H201        H  0.94801164  0.93227016  0.01828757     0.41200
H202        H  0.00011325  0.88968429  0.96683568     0.31300
H203        H  0.93795989  0.86897350  0.95012334     0.38900
H204        H  0.04108476  0.14344766  0.96735194     0.30700
H205        H  0.12039349  0.02122697  0.96327253     0.30800
H206        H  0.04911998  0.05944824  0.90608646     0.31100
C207        C  0.99626979  0.28950801  0.62995050     0.03200
C208        C  0.96160441  0.28368983  0.63624212    -0.13000
C209        C  0.96195883  0.30852984  0.64864545     0.00700
C210        C  0.99723347  0.34024228  0.65426855    -0.11500
C211        C  0.03228221  0.34696013  0.64810699     0.03200
C212        C  0.03134907  0.32106198  0.63602468    -0.10900
H213        H  0.93439751  0.25903230  0.63194255     0.08800
H214        H  0.99702097  0.36034694  0.66321429     0.06300
H215        H  0.05795997  0.32537769  0.63125277     0.06100
C216        C  0.99857579  0.32379620  0.82023482     0.03200
C217        C  0.96524136  0.31701585  0.81201407    -0.13000
C218        C  0.96791443  0.34128689  0.79870171     0.00700
C219        C  0.00394832  0.37328832  0.79393908    -0.11500
C220        C  0.03740852  0.38153410  0.80218936     0.03200
C221        C  0.03462624  0.35626205  0.81513240    -0.10900
H222        H  0.93719111  0.29276642  0.81583139     0.08800
H223        H  0.00587582  0.39201792  0.78368491     0.06300
H224        H  0.06062513  0.36194619  0.82116162     0.06100
C225        C  0.67125508  0.34313701  0.70032552     0.45500
H226        H  0.66943835  0.33909010  0.68675352    -0.03500
C227        C  0.67517395  0.35298145  0.73208191     0.45500
H228        H  0.67698228  0.35736979  0.74563680    -0.03500
C229        C  0.63409854  0.31329244  0.70944842    -0.17200
C230        C  0.70286975  0.33882756  0.70842911    -0.17000
C231        C  0.67908634  0.38403789  0.70551458    -0.17400
C232        C  0.63619149  0.31816809  0.72628150    -0.17300
C233        C  0.70492297  0.34420947  0.72523459    -0.16900
C234        C  0.68113503  0.38925599  0.72228466    -0.17200
C235        C  0.33630373  0.70047505  0.73069819     0.45500
H236        H  0.33786183  0.70422122  0.74428853    -0.03500
C237        C  0.33235013  0.69129883  0.69884656     0.45500
H238        H  0.33077991  0.68733912  0.68526839    -0.03500
C239        C  0.33456918  0.73323782  0.72123818    -0.17200
C240        C  0.37062430  0.70026920  0.72336824    -0.17000
C241        C  0.30090287  0.66152319  0.72507291    -0.17400
C242        C  0.33281132  0.72873837  0.70440460    -0.17300
C243        C  0.36838490  0.69502155  0.70658541    -0.16900
C244        C  0.29851898  0.65669189  0.70825944    -0.17200
C245        C  0.31617710  0.03040045  0.60519189     0.03200
C246        C  0.34593590  0.06421211  0.61314660    -0.13000
C247        C  0.36760196  0.06035196  0.62557786     0.00700
C248        C  0.35968312  0.02238787  0.63000204    -0.11500
C249        C  0.33040854  0.98828843  0.62219021     0.03200
C250        C  0.30839667  0.99232925  0.60990272    -0.10900
H251        H  0.35177234  0.09361570  0.60995356     0.08800
H252        H  0.37663816  0.01934760  0.63951216     0.06300
H253        H  0.28606230  0.96599783  0.60373932     0.06100
C254        C  0.67854848  0.70350107  0.61248747     0.03200
C255        C  0.68583814  0.67533526  0.61945595    -0.13000
C256        C  0.66230801  0.64944673  0.63204269     0.00700
C257        C  0.63152701  0.65217985  0.63786176    -0.11500
C258        C  0.62411906  0.68052979  0.63130811     0.03200
C259        C  0.64754331  0.70583233  0.61851448    -0.10900
H260        H  0.70992262  0.67354097  0.61513565     0.08800
H261        H  0.61349647  0.63238317  0.64766206     0.06300
H262        H  0.64178987  0.72757116  0.61334677     0.06100
C263        C  0.71417681  0.73917426  0.79943803     0.03200
C264        C  0.68539423  0.74616785  0.79410349    -0.13000
C265        C  0.65584160  0.71908225  0.78361075     0.00700
C266        C  0.65567180  0.68516173  0.77833999    -0.11500
C267        C  0.68427956  0.67797873  0.78335225     0.03200
C268        C  0.71374817  0.70534318  0.79366726    -0.10900
H269        H  0.68491721  0.77160148  0.79872515     0.08800
H270        H  0.63340247  0.66435747  0.77007518     0.06300
H271        H  0.73584185  0.69969552  0.79751265     0.06100
C272        C  0.30726064  0.01991052  0.82226427     0.03200
C273        C  0.34119534  0.05619191  0.81822090    -0.13000
C274        C  0.37001151  0.05626432  0.80873697     0.00700
C275        C  0.36467849  0.01987667  0.80352051    -0.11500
C276        C  0.33100230  0.98381190  0.80730372     0.03200
C277        C  0.30219929  0.98390710  0.81651369    -0.10900
H278        H  0.34508392  0.08412147  0.82238201     0.08800
H279        H  0.38638384  0.01962258  0.79596333     0.06300
H280        H  0.27627800  0.95584298  0.81956116     0.06100
C281        C  0.62427829  0.72503987  0.77846649    -0.03200
C282        C  0.63180571  0.76273743  0.77355809    -0.05800
C283        C  0.60202663  0.76741935  0.76788024    -0.20800
C284        C  0.56409895  0.73466625  0.76715576     0.24900
C285        C  0.55663453  0.69702320  0.77220074    -0.18400
C286        C  0.58628610  0.69238257  0.77786241    -0.08400
C287        C  0.53371009  0.73996541  0.75976956    -0.18700
C288        C  0.49580896  0.71405261  0.76223065    -0.23500
C289        C  0.46461424  0.71429236  0.75281936     0.26900
C290        C  0.42633407  0.68763722  0.75764539    -0.20200
C291        C  0.39583201  0.68362299  0.74824357    -0.09900
C292        C  0.40300696  0.70596373  0.73373781    -0.10400
C293        C  0.44109308  0.73359825  0.72915227    -0.03300
C294        C  0.47161932  0.73760860  0.73850270    -0.18500
H295        H  0.66085510  0.78835460  0.77367080     0.10600
H296        H  0.60871686  0.79662688  0.76382954     0.10700
H297        H  0.52822762  0.67067523  0.77132225     0.10400
H298        H  0.57945168  0.66297627  0.78166172     0.11500
H299        H  0.54330742  0.76576943  0.75186286     0.11600
H300        H  0.48681873  0.69043511  0.77130825     0.13500
H301        H  0.41996393  0.66914259  0.76854056     0.10000
H302        H  0.36662418  0.66220517  0.75203465     0.12100
H303        H  0.44724639  0.75176256  0.71817352     0.08700
H304        H  0.50036994  0.75815653  0.73408542     0.11400
C305        C  0.39602347  0.68979190  0.69693749    -0.03200
C306        C  0.40329235  0.66005521  0.70151436    -0.05800
C307        C  0.43156761  0.65683576  0.69344144    -0.20800
C308        C  0.45291803  0.68298094  0.68051206     0.24900
C309        C  0.44494211  0.71229529  0.67563596    -0.18400
C310        C  0.41641841  0.71542736  0.68375138    -0.08400
C311        C  0.48453673  0.67982923  0.67327215    -0.18700
C312        C  0.50011560  0.69395269  0.65829160    -0.23500
C313        C  0.53206939  0.69039676  0.65160891     0.26900
C314        C  0.53776155  0.69209567  0.63448828    -0.20200
C315        C  0.56765163  0.68900687  0.62783111    -0.09900
C316        C  0.59251847  0.68421678  0.63819366    -0.10400
C317        C  0.58720360  0.68314882  0.65532088    -0.03300
C318        C  0.55755214  0.68645110  0.66196677    -0.18500
H319        H  0.38751028  0.63977839  0.71157899     0.10600
H320        H  0.43710519  0.63405820  0.69745596     0.10700
H321        H  0.46138126  0.73359881  0.66599438     0.10400
H322        H  0.41123956  0.73872180  0.68016796     0.11500
H323        H  0.49423464  0.66352718  0.68050227     0.11600
H324        H  0.48815335  0.70697464  0.65034338     0.13500
H325        H  0.51880593  0.69546143  0.62623196     0.10000
H326        H  0.57098802  0.68978852  0.61457585     0.12100
H327        H  0.60649377  0.68047648  0.66362645     0.08700
H328        H  0.55534071  0.68670428  0.67523108     0.11400
C329        C  0.32620852  0.94640607  0.80115406    -0.03200
C330        C  0.35432334  0.93719530  0.80453759    -0.05800
C331        C  0.35292315  0.90486233  0.79692987    -0.20800
C332        C  0.32396257  0.88186624  0.78551935     0.24900
C333        C  0.29458043  0.88976125  0.78281123    -0.18400
C334        C  0.29567108  0.92180017  0.79064056    -0.08400
C335        C  0.32651569  0.85133668  0.77612622    -0.18700
C336        C  0.31529450  0.84303767  0.76031575    -0.23500
C337        C  0.32185835  0.81620272  0.75007025     0.26900
C338        C  0.29808894  0.79784834  0.73640497    -0.20200
C339        C  0.30295560  0.77184785  0.72660977    -0.09900
C340        C  0.33211431  0.76430700  0.73019549    -0.10400
C341        C  0.35676897  0.78366065  0.74348060    -0.03300
C342        C  0.35189704  0.80958208  0.75329438    -0.18500
H343        H  0.37795921  0.95576923  0.81271671     0.10600
H344        H  0.37556992  0.89900303  0.79934265     0.10700
H345        H  0.27117375  0.87171775  0.77447092     0.10400
H346        H  0.27369504  0.92847469  0.78792390     0.11500
H347        H  0.34076940  0.83781764  0.78204499     0.11600
H348        H  0.30112903  0.85676747  0.75447548     0.13500
H349        H  0.27508160  0.80287447  0.73355478     0.10000
H350        H  0.28318499  0.75665808  0.71657639     0.12100
H351        H  0.37965798  0.77844275  0.74633553     0.08700
H352        H  0.37188829  0.82448316  0.76326247     0.11400
C353        C  0.33400595  0.75810789  0.69251533    -0.03200
C354        C  0.36250737  0.79851163  0.69394319    -0.05800
C355        C  0.36385528  0.82651402  0.68292897    -0.20800
C356        C  0.33658599  0.81490098  0.67031109     0.24900
C357        C  0.30833474  0.77420536  0.66864923    -0.18400
C358        C  0.30727824  0.74599095  0.67963538    -0.08400
C359        C  0.33967179  0.84640971  0.65909349    -0.18700
C360        C  0.31024608  0.84389001  0.65049671    -0.23500
C361        C  0.31449186  0.87863955  0.64113912     0.26900
C362        C  0.28293100  0.88348257  0.63966102    -0.20200
C363        C  0.28745988  0.91835357  0.63268692    -0.09900
C364        C  0.32365062  0.94885580  0.62708295    -0.10400
C365        C  0.35458708  0.94292281  0.62759804    -0.03300
C366        C  0.35000575  0.90805131  0.63437627    -0.18500
H367        H  0.38392324  0.80839244  0.70356484     0.10600
H368        H  0.38617592  0.85754733  0.68437911     0.10700
H369        H  0.28746467  0.76404551  0.65881348     0.10400
H370        H  0.28532066  0.71481580  0.67823654     0.11500
H371        H  0.36705783  0.87447655  0.65908411     0.11600
H372        H  0.28173490  0.81745980  0.65165182     0.13500
H373        H  0.25516593  0.86108701  0.64458714     0.10000
H374        H  0.26322342  0.92235813  0.63241694     0.12100
H375        H  0.38261775  0.96580052  0.62307945     0.08700
H376        H  0.37456814  0.90463333  0.63458421     0.11400
C377        C  0.68003151  0.41279294  0.69341047    -0.03200
C378        C  0.65007256  0.40010955  0.68204829    -0.05800
C379        C  0.64818306  0.42772551  0.67186546    -0.20800
C380        C  0.67628036  0.46853570  0.67276934     0.24900
C381        C  0.70745579  0.48080642  0.68362077    -0.18400
C382        C  0.70924034  0.45311637  0.69381169    -0.08400
C383        C  0.67087545  0.49683161  0.66258808    -0.18700
C384        C  0.69241544  0.53683266  0.66388038    -0.23500
C385        C  0.68426999  0.56432939  0.65470105     0.26900
C386        C  0.71407183  0.60416639  0.65250073    -0.20200
C387        C  0.70717892  0.63164002  0.64480156    -0.09900
C388        C  0.67013370  0.61992712  0.63938426    -0.10400
C389        C  0.64026454  0.58012245  0.64154743    -0.03300
C390        C  0.64719404  0.55255025  0.64911215    -0.18500
H391        H  0.62723644  0.36905237  0.68153673     0.10600
H392        H  0.62401345  0.41725358  0.66358073     0.10700
H393        H  0.73040633  0.51155686  0.68456516     0.10400
H394        H  0.73299765  0.46329842  0.70230394     0.11500
H395        H  0.64720488  0.48376732  0.65392427     0.11600
H396        H  0.71700088  0.55065869  0.67199959     0.13500
H397        H  0.74275034  0.61413993  0.65687614     0.10000
H398        H  0.73056980  0.66230211  0.64346598     0.12100
H399        H  0.61144270  0.57042314  0.63747156     0.08700
H400        H  0.62314577  0.52251714  0.65100790     0.11400
C401        C  0.68494959  0.42445486  0.73061184    -0.03200
C402        C  0.71454253  0.44562519  0.74198095    -0.05800
C403        C  0.71886544  0.47936886  0.74966461    -0.20800
C404        C  0.69316750  0.49199877  0.74639134     0.24900
C405        C  0.66325220  0.47046108  0.73504310    -0.18400
C406        C  0.65910800  0.43686860  0.72729671    -0.08400
C407        C  0.69928356  0.52852822  0.75452545    -0.18700
C408        C  0.67055448  0.53479394  0.75760421    -0.23500
C409        C  0.67627724  0.57152756  0.76538635     0.26900
C410        C  0.64487952  0.56982318  0.77319822    -0.20200
C411        C  0.64793156  0.60424679  0.77946653    -0.09900
C412        C  0.68246426  0.64121142  0.77799841    -0.10400
C413        C  0.71433090  0.64293684  0.77064097    -0.03300
C414        C  0.71124822  0.60845233  0.76428424    -0.18500
H415        H  0.73468812  0.43639545  0.74468989     0.10600
H416        H  0.74226261  0.49558164  0.75825706     0.10700
H417        H  0.64349819  0.47987026  0.73186231     0.10400
H418        H  0.63582941  0.42064357  0.71865251     0.11500
H419        H  0.72809529  0.54995828  0.75874408     0.11600
H420        H  0.64123587  0.51149800  0.75481546     0.13500
H421        H  0.61768304  0.54181451  0.77424062     0.10000
H422        H  0.62309845  0.60213279  0.78527643     0.12100
H423        H  0.74112972  0.67120855  0.76923564     0.08700
H424        H  0.73581131  0.61118785  0.75798955     0.11400
C425        C  0.59905979  0.28529227  0.70018325    -0.03200
C426        C  0.56391564  0.28211851  0.70355521    -0.05800
C427        C  0.53129421  0.25645305  0.69438636    -0.20800
C428        C  0.53347950  0.23434645  0.68143972     0.24900
C429        C  0.56887871  0.23802344  0.67793145    -0.18400
C430        C  0.60137231  0.26338304  0.68721170    -0.08400
C431        C  0.49787546  0.20550870  0.67267105    -0.18700
C432        C  0.49770095  0.19333460  0.65721726    -0.23500
C433        C  0.46258910  0.16068458  0.64938711     0.26900
C434        C  0.45935198  0.15974867  0.63216313    -0.20200
C435        C  0.42768546  0.12781262  0.62442146    -0.09900
C436        C  0.39920367  0.09585496  0.63378573    -0.10400
C437        C  0.40232839  0.09685670  0.65102058    -0.03300
C438        C  0.43367262  0.12895878  0.65876347    -0.18500
H439        H  0.56174640  0.29967095  0.71320046     0.10600
H440        H  0.50430930  0.25396860  0.69735585     0.10700
H441        H  0.57138721  0.22055335  0.66836514     0.10400
H442        H  0.62826032  0.26548149  0.68440977     0.11500
H443        H  0.47087651  0.19401436  0.67920693     0.11600
H444        H  0.52400364  0.20771062  0.64999850     0.13500
H445        H  0.48155228  0.18358855  0.62469060     0.10000
H446        H  0.42608540  0.12737910  0.61109648     0.12100
H447        H  0.38073310  0.07246765  0.65848220     0.08700
H448        H  0.43584117  0.12809293  0.67203107     0.11400
C449        C  0.60478354  0.29273799  0.73807879    -0.03200
C450        C  0.59498943  0.31015936  0.75064165    -0.05800
C451        C  0.56474306  0.28631311  0.76151163    -0.20800
C452        C  0.54443545  0.24464228  0.76026202     0.24900
C453        C  0.55463146  0.22724669  0.74779385    -0.18400
C454        C  0.58458678  0.25105846  0.73686829    -0.08400
C455        C  0.51188998  0.21971724  0.77165158    -0.18700
C456        C  0.50475727  0.18427587  0.77728698    -0.23500
C457        C  0.47118997  0.15632976  0.78765734     0.26900
C458        C  0.47344070  0.12740718  0.79686558    -0.20200
C459        C  0.44103369  0.09655312  0.80475014    -0.09900
C460        C  0.40540405  0.09362648  0.80349415    -0.10400
C461        C  0.40340469  0.12376585  0.79509212    -0.03300
C462        C  0.43604703  0.15490136  0.78719080    -0.18500
H463        H  0.61021056  0.34225993  0.75182082     0.10600
H464        H  0.55732699  0.30038118  0.77097339     0.10700
H465        H  0.53899944  0.19523666  0.74627757     0.10400
H466        H  0.59193456  0.23690337  0.72742368     0.11500
H467        H  0.49444505  0.23132099  0.77580646     0.11600
H468        H  0.52487044  0.17515114  0.77421779     0.13500
H469        H  0.50010278  0.12781582  0.79744853     0.10000
H470        H  0.44337997  0.07380635  0.81122664     0.12100
H471        H  0.37613603  0.12183741  0.79374857     0.08700
H472        H  0.43306428  0.17626756  0.77995545     0.11400
C473        C  0.93346702  0.33424865  0.78963791    -0.03200
C474        C  0.93366191  0.33474244  0.77234716    -0.05800
C475        C  0.90364886  0.33341260  0.76361655    -0.20800
C476        C  0.87273123  0.33168736  0.77191523     0.24900
C477        C  0.87181638  0.32972533  0.78928397    -0.18400
C478        C  0.90188248  0.33077747  0.79803849    -0.08400
C479        C  0.84386618  0.33455741  0.76182694    -0.18700
C480        C  0.81114970  0.33047985  0.76762978    -0.23500
C481        C  0.78458710  0.33554440  0.75685958     0.26900
C482        C  0.74528348  0.31488275  0.76070314    -0.20200
C483        C  0.71949080  0.31806891  0.75046599    -0.09900
C484        C  0.73262699  0.34203704  0.73624382    -0.10400
C485        C  0.77205422  0.36414845  0.73276330    -0.03300
C486        C  0.79785165  0.36104543  0.74298809    -0.18500
H487        H  0.95759094  0.33711946  0.76557837     0.10600
H488        H  0.90515275  0.33482257  0.75028070     0.10700
H489        H  0.84889021  0.32878401  0.79625355     0.10400
H490        H  0.90133974  0.33077193  0.81137956     0.11500
H491        H  0.85006485  0.34023965  0.74874914     0.11600
H492        H  0.80249950  0.32165063  0.78031996     0.13500
H493        H  0.73443448  0.29561960  0.77145646     0.10000
H494        H  0.68914925  0.30114701  0.75344918     0.12100
H495        H  0.78284534  0.38381132  0.72212939     0.08700
H496        H  0.82813740  0.37895513  0.74006497     0.11400
C497        C  0.27288661  0.63234472  0.73709143    -0.03200
C498        C  0.25652373  0.64465007  0.74896789    -0.05800
C499        C  0.22882909  0.61696344  0.75989936    -0.20800
C500        C  0.21740654  0.57659216  0.75932331     0.24900
C501        C  0.23440920  0.56451421  0.74751202    -0.18400
C502        C  0.26210725  0.59224480  0.73660811    -0.08400
C503        C  0.18585749  0.54781732  0.77040002    -0.18700
C504        C  0.17784990  0.51058420  0.77359080    -0.23500
C505        C  0.14321866  0.48000635  0.78281718     0.26900
C506        C  0.14116828  0.44483837  0.78800063    -0.20200
C507        C  0.10742601  0.41335188  0.79498609    -0.09900
C508        C  0.07492741  0.41636681  0.79685581    -0.10400
C509        C  0.07754798  0.45220205  0.79235411    -0.03300
C510        C  0.11105691  0.48348309  0.78530166    -0.18500
H511        H  0.26446928  0.67551175  0.74949529     0.10600
H512        H  0.21595649  0.62704648  0.76872403     0.10700
H513        H  0.22579359  0.53365233  0.74624929     0.10400
H514        H  0.27472966  0.58229367  0.72760175     0.11500
H515        H  0.16871607  0.55814624  0.77608469     0.11600
H516        H  0.19707614  0.50154559  0.76910380     0.13500
H517        H  0.16538984  0.44122124  0.78617788     0.10000
H518        H  0.10623577  0.38604102  0.79822207     0.12100
H519        H  0.05316584  0.45567356  0.79387181     0.08700
H520        H  0.11070267  0.50942972  0.78124726     0.11400
C521        C  0.72729654  0.32858151  0.69866307    -0.03200
C522        C  0.74391196  0.34871218  0.68380365    -0.05800
C523        C  0.76832785  0.34068219  0.67489061    -0.20800
C524        C  0.77684535  0.31253139  0.68067936     0.24900
C525        C  0.75845072  0.29073809  0.69509938    -0.18400
C526        C  0.73383123  0.29862113  0.70394928    -0.08400
C527        C  0.80558244  0.30748565  0.67154209    -0.18700
C528        C  0.82743644  0.29538558  0.67883862    -0.23500
C529        C  0.86018056  0.29589313  0.67055396     0.26900
C530        C  0.88964906  0.29853441  0.68040887    -0.20200
C531        C  0.92219857  0.30172974  0.67325834    -0.09900
C532        C  0.92581781  0.30173123  0.65605140    -0.10400
C533        C  0.89564984  0.29722903  0.64613613    -0.03300
C534        C  0.86313367  0.29443084  0.65330039    -0.18500
H535        H  0.73888675  0.37152068  0.67931846     0.10600
H536        H  0.78157433  0.35744804  0.66369243     0.10700
H537        H  0.76289728  0.26756586  0.69957932     0.10400
H538        H  0.72005265  0.28143742  0.71499297     0.11500
H539        H  0.81149034  0.31796222  0.65886746     0.11600
H540        H  0.82375224  0.28843294  0.69191989     0.13500
H541        H  0.88798747  0.29923373  0.69371256     0.10000
H542        H  0.94484507  0.30463121  0.68118774     0.12100
H543        H  0.89774807  0.29705171  0.63284065     0.08700
H544        H  0.84054619  0.29120851  0.64528829     0.11400
C545        C  0.26619656  0.62227471  0.69976316    -0.03200
C546        C  0.22815254  0.60972074  0.70380382    -0.05800
C547        C  0.19775768  0.57525446  0.69688361    -0.20800
C548        C  0.20461584  0.55280730  0.68561212     0.24900
C549        C  0.24285398  0.56648123  0.68102269    -0.18400
C550        C  0.27332709  0.60102070  0.68803705    -0.08400
C551        C  0.17087502  0.51520832  0.67943785    -0.18700
C552        C  0.17257172  0.48873834  0.66963492    -0.23500
C553        C  0.13742042  0.45113421  0.66463181     0.26900
C554        C  0.13551067  0.43558649  0.64894754    -0.20200
C555        C  0.10176119  0.40147962  0.64362292    -0.09900
C556        C  0.06946089  0.38151652  0.65408201    -0.10400
C557        C  0.07256413  0.39591188  0.67020132    -0.03300
C558        C  0.10592164  0.43044679  0.67535149    -0.18500
H559        H  0.22197089  0.62622773  0.71256110     0.10600
H560        H  0.16871713  0.56576077  0.70057114     0.10700
H561        H  0.24972209  0.55068343  0.67225049     0.10400
H562        H  0.30254768  0.61046325  0.68469420     0.11500
H563        H  0.14279595  0.50878426  0.68338030     0.11600
H564        H  0.19967147  0.49476642  0.66466066     0.13500
H565        H  0.15970277  0.45071091  0.64057440     0.10000
H566        H  0.10074794  0.39174273  0.63110845     0.12100
H567        H  0.04919476  0.38060682  0.67893093     0.08700
H568        H  0.10709820  0.44069608  0.68780088     0.11400
C569        C  0.89549916  0.89942948  0.90486864    -0.03200
C570        C  0.86069619  0.86319791  0.90762555    -0.05800
C571        C  0.83804553  0.84042741  0.89444480    -0.20800
C572        C  0.84925097  0.85326050  0.87813792     0.24900
C573        C  0.88428128  0.88927328  0.87527194    -0.18400
C574        C  0.90707683  0.91217291  0.88851540    -0.08400
C575        C  0.82376726  0.82755356  0.86465890    -0.18700
C576        C  0.82403851  0.84037381  0.84917926    -0.23500
C577        C  0.79649109  0.81407744  0.83631764     0.26900
C578        C  0.78700832  0.83109487  0.82332629    -0.20200
C579        C  0.76039878  0.80702108  0.81129039    -0.09900
C580        C  0.74308729  0.76538323  0.81189641    -0.10400
C581        C  0.75316721  0.74851516  0.82474230    -0.03300
C582        C  0.77967185  0.77248370  0.83672040    -0.18500
H583        H  0.85070518  0.85235785  0.92001609     0.10600
H584        H  0.81136592  0.81273045  0.89703176     0.10700
H585        H  0.89449474  0.89966302  0.86288394     0.10400
H586        H  0.93381629  0.93977407  0.88593324     0.11500
H587        H  0.80209427  0.79718283  0.86805346     0.11600
H588        H  0.84318113  0.87158386  0.84604867     0.13500
H589        H  0.79983691  0.86307695  0.82261575     0.10000
H590        H  0.75357656  0.82098104  0.80145569     0.12100
H591        H  0.74010650  0.71654738  0.82570068     0.08700
H592        H  0.78704613  0.75818802  0.84617382     0.11400
C593        C  0.27699114  0.01890092  0.83263372    -0.03200
C594        C  0.23841258  0.99646920  0.82769880    -0.05800
C595        C  0.20935946  0.99307003  0.83789653    -0.20800
C596        C  0.21810769  0.01124463  0.85339355     0.24900
C597        C  0.25684206  0.03433767  0.85825891    -0.18400
C598        C  0.28603777  0.03825717  0.84791002    -0.08400
C599        C  0.18610425  0.00593652  0.86395623    -0.18700
C600        C  0.18720897  0.00542261  0.88053200    -0.23500
C601        C  0.15481119  0.99862042  0.89128295     0.26900
C602        C  0.15361742  0.98605158  0.90760243    -0.20200
C603        C  0.12496843  0.98128993  0.91844027    -0.09900
C604        C  0.09688028  0.98935484  0.91326321    -0.10400
C605        C  0.09765191  0.00132956  0.89682326    -0.03300
C606        C  0.12629031  0.00597262  0.88595587    -0.18500
H607        H  0.23075336  0.98143441  0.81593636     0.10600
H608        H  0.17982288  0.97546548  0.83380789     0.10700
H609        H  0.26466834  0.04959506  0.86995765     0.10400
H610        H  0.31558656  0.05556299  0.85199998     0.11500
H611        H  0.15989619  0.99937290  0.85778399     0.11600
H612        H  0.21224462  0.00823421  0.88654651     0.13500
H613        H  0.17524063  0.98029645  0.91205919     0.10000
H614        H  0.12550429  0.97227745  0.93102287     0.12100
H615        H  0.07667397  0.00808662  0.89242927     0.08700
H616        H  0.12660131  0.01661240  0.87361008     0.11400
C617        C  0.99592850  0.29672483  0.83387188    -0.03200
C618        C  0.02195593  0.31145232  0.84712442    -0.05800
C619        C  0.02104633  0.28570429  0.85932093    -0.20800
C620        C  0.99345093  0.24481438  0.85887447     0.24900
C621        C  0.96671014  0.23002845  0.84594326    -0.18400
C622        C  0.96810658  0.25562447  0.83353162    -0.08400
C623        C  0.99480914  0.21789907  0.87138252    -0.18700
C624        C  0.96307758  0.18558237  0.87752773    -0.23500
C625        C  0.96482625  0.15836293  0.88976717     0.26900
C626        C  0.93669617  0.14061584  0.90214338    -0.20200
C627        C  0.93758377  0.11456026  0.91372048    -0.09900
C628        C  0.96605280  0.10485833  0.91284834    -0.10400
C629        C  0.99366645  0.12195431  0.90017967    -0.03300
C630        C  0.99325631  0.14863763  0.88885346    -0.18500
H631        H  0.04320517  0.34292993  0.84809692     0.10600
H632        H  0.04194119  0.29778294  0.86917798     0.10700
H633        H  0.94564240  0.19845908  0.84506880     0.10400
H634        H  0.94807292  0.24288442  0.82340704     0.11500
H635        H  0.02278353  0.22588246  0.87614959     0.11600
H636        H  0.93497551  0.17988036  0.87405796     0.13500
H637        H  0.91427710  0.14735888  0.90297865     0.10000
H638        H  0.91577922  0.10170284  0.92325058     0.12100
H639        H  0.01598696  0.11511792  0.89913533     0.08700
H640        H  0.01478982  0.16109542  0.87920902     0.11400
C641        C  0.86887643  0.91933577  0.52017655    -0.03200
C642        C  0.83081612  0.91017062  0.51873259    -0.05800
C643        C  0.80311054  0.88574534  0.53045287    -0.20800
C644        C  0.81268950  0.86911846  0.54352472     0.24900
C645        C  0.85089032  0.87891022  0.54515611    -0.18400
C646        C  0.87874743  0.90400007  0.53367156    -0.08400
C647        C  0.78275654  0.84209373  0.55550942    -0.18700
C648        C  0.78167182  0.80977615  0.56172079    -0.23500
C649        C  0.75315646  0.78270021  0.57415149     0.26900
C650        C  0.74205437  0.74247228  0.57439805    -0.20200
C651        C  0.71731123  0.71665278  0.58663068    -0.09900
C652        C  0.70361141  0.73068608  0.59908577    -0.10400
C653        C  0.71468265  0.77103598  0.59879629    -0.03300
C654        C  0.73911352  0.79677168  0.58643148    -0.18500
H655        H  0.82249827  0.92191368  0.50854365     0.10600
H656        H  0.77395058  0.87900635  0.52908634     0.10700
H657        H  0.85929047  0.86733892  0.55537374     0.10400
H658        H  0.90783696  0.91060432  0.53513653     0.11500
H659        H  0.76030865  0.84783505  0.55865575     0.11600
H660        H  0.80187849  0.80206378  0.55713123     0.13500
H661        H  0.75263035  0.73100111  0.56509250     0.10000
H662        H  0.70891140  0.68565364  0.58633717     0.12100
H663        H  0.70529585  0.78299430  0.60838670     0.08700
H664        H  0.74803167  0.82790308  0.58683980     0.11400
C665        C  0.99638523  0.11755109  0.52472739    -0.03200
C666        C  0.99475241  0.15173884  0.52155780    -0.05800
C667        C  0.99275781  0.17374866  0.53447681    -0.20800
C668        C  0.99273081  0.16254577  0.55091188     0.24900
C669        C  0.99452344  0.12843112  0.55418398    -0.18400
C670        C  0.99636000  0.10620935  0.54121393    -0.08400
C671        C  0.98927936  0.18649482  0.56409899    -0.18700
C672        C  0.00043360  0.18752964  0.57980212    -0.23500
C673        C  0.99806861  0.21304919  0.59258638     0.26900
C674        C  0.02309554  0.22502970  0.60607817    -0.20200
C675        C  0.02229333  0.24954558  0.61821676    -0.09900
C676        C  0.99617542  0.26245588  0.61722879    -0.10400
C677        C  0.97040891  0.24966543  0.60393749    -0.03300
C678        C  0.97124769  0.22515458  0.59176519    -0.18500
H679        H  0.99455221  0.16136996  0.50905042     0.10600
H680        H  0.99118571  0.19972398  0.53159450     0.10700
H681        H  0.99357614  0.11819007  0.56666966     0.10400
H682        H  0.99731522  0.07989606  0.54411458     0.11500
H683        H  0.97902703  0.20579487  0.56038645     0.11600
H684        H  0.01404932  0.17119024  0.58324775     0.13500
H685        H  0.04367991  0.21574956  0.60714189     0.10000
H686        H  0.04199920  0.25818275  0.62847046     0.12100
H687        H  0.94994936  0.25908390  0.60282065     0.08700
H688        H  0.95059142  0.21550442  0.58186342     0.11400
C689        C  0.11958244  0.05019851  0.51933178    -0.03200
C690        C  0.10836796  0.04294064  0.53599336    -0.05800
C691        C  0.13237444  0.04175250  0.54793513    -0.20800
C692        C  0.16831562  0.04792137  0.54362766     0.24900
C693        C  0.18020040  0.05649300  0.52702884    -0.18400
C694        C  0.15613905  0.05776956  0.51504583    -0.08400
C695        C  0.19093796  0.04235246  0.55662724    -0.18700
C696        C  0.22842821  0.05473690  0.55524472    -0.23500
C697        C  0.25001228  0.04743350  0.56814880     0.26900
C698        C  0.29005564  0.07281567  0.56883642    -0.20200
C699        C  0.31149920  0.06694544  0.58067678    -0.09900
C700        C  0.29342048  0.03528491  0.59208651    -0.10400
C701        C  0.25342554  0.00916097  0.59112837    -0.03300
C702        C  0.23192896  0.01510921  0.57929442    -0.18500
H703        H  0.08048409  0.03704972  0.53979938     0.10600
H704        H  0.12238758  0.03507849  0.56057935     0.10700
H705        H  0.20725810  0.06064234  0.52303647     0.10400
H706        H  0.16557170  0.06307296  0.50232008     0.11500
H707        H  0.17592594  0.02791484  0.56798525     0.11600
H708        H  0.24461566  0.07228345  0.54460306     0.13500
H709        H  0.30480961  0.09754177  0.56025576     0.10000
H710        H  0.34235179  0.08715706  0.58084708     0.12100
H711        H  0.23861966  0.98451108  0.59972870     0.08700
H712        H  0.20129586  0.99404046  0.57882217     0.11400
C713        C  0.11862529  0.09553554  0.41013013    -0.03200
C714        C  0.10767976  0.08665101  0.39351358    -0.05800
C715        C  0.13263909  0.11011007  0.38085187    -0.20800
C716        C  0.16885507  0.14335240  0.38445946     0.24900
C717        C  0.18047891  0.15153501  0.40102853    -0.18400
C718        C  0.15562742  0.12779904  0.41372567    -0.08400
C719        C  0.19365039  0.16866884  0.37064233    -0.18700
C720        C  0.21902757  0.20803561  0.37214219    -0.23500
C721        C  0.24215782  0.23402679  0.35813521     0.26900
C722        C  0.25424805  0.27453300  0.35845708    -0.20200
C723        C  0.27697163  0.30026743  0.34576353    -0.09900
C724        C  0.28852403  0.28612134  0.33253207    -0.10400
C725        C  0.27633548  0.24549361  0.33217523    -0.03300
C726        C  0.25342024  0.21969378  0.34484078    -0.18500
H727        H  0.07952029  0.06185721  0.39026198     0.10600
H728        H  0.12318735  0.10289636  0.36819064     0.10700
H729        H  0.20870841  0.17621083  0.40422627     0.10400
H730        H  0.16503772  0.13537731  0.42636672     0.11500
H731        H  0.18856362  0.15502792  0.35858987     0.11600
H732        H  0.22124330  0.22240267  0.38380782     0.13500
H733        H  0.24610036  0.28633206  0.36859296     0.10000
H734        H  0.28623995  0.33146793  0.34650495     0.12100
H735        H  0.28448138  0.23361807  0.32207580     0.08700
H736        H  0.24533740  0.18882839  0.34435137     0.11400
C737        C  0.71591063  0.01570680  0.33628367    -0.03200
C738        C  0.75573196  0.04258304  0.33509143    -0.05800
C739        C  0.78086511  0.03972498  0.34589601    -0.20800
C740        C  0.76698203  0.00993902  0.35814796     0.24900
C741        C  0.72698797  0.98336251  0.35950618    -0.18400
C742        C  0.70187923  0.98631068  0.34872499    -0.08400
C743        C  0.79541798  0.00820937  0.36910789    -0.18700
C744        C  0.78665468  0.97965173  0.38054795    -0.23500
C745        C  0.81582044  0.97931394  0.39139644     0.26900
C746        C  0.80404174  0.95982005  0.40671142    -0.20200
C747        C  0.83061453  0.95969211  0.41749948    -0.09900
C748        C  0.86964942  0.97868302  0.41313306    -0.10400
C749        C  0.88124964  0.99698423  0.39753595    -0.03300
C750        C  0.85464705  0.99726416  0.38676913    -0.18500
H751        H  0.76758948  0.06539004  0.32559028     0.10600
H752        H  0.81143286  0.06073485  0.34454776     0.10700
H753        H  0.71452457  0.96031572  0.36883641     0.10400
H754        H  0.67130677  0.96568606  0.35025725     0.11500
H755        H  0.82514935  0.03215988  0.36770713     0.11600
H756        H  0.75708347  0.95624360  0.38266327     0.13500
H757        H  0.77425055  0.94530903  0.41049818     0.10000
H758        H  0.82056861  0.94506827  0.42936243     0.12100
H759        H  0.91102664  0.01171763  0.39372987     0.08700
H760        H  0.86463757  0.01131330  0.37482603     0.11400
C761        C  0.01693963  0.73199566  0.33309714    -0.03200
C762        C  0.99067192  0.71395703  0.34613459    -0.05800
C763        C  0.98815692  0.73708662  0.35839829    -0.20800
C764        C  0.01138901  0.77877516  0.35780441     0.24900
C765        C  0.03853401  0.79695137  0.34501834    -0.18400
C766        C  0.04130116  0.77369920  0.33278403    -0.08400
C767        C  0.00689930  0.80184165  0.37101253    -0.18700
C768        C  0.01533170  0.83961610  0.36915857    -0.23500
C769        C  0.00963413  0.86163771  0.38255604     0.26900
C770        C  0.00590541  0.89420096  0.37857594    -0.20200
C771        C  0.00097192  0.91572900  0.39097770    -0.09900
C772        C  0.99986791  0.90517858  0.40764511    -0.10400
C773        C  0.00381396  0.87268025  0.41156217    -0.03300
C774        C  0.00889925  0.85142883  0.39924189    -0.18500
H775        H  0.97201257  0.68185379  0.34683836     0.10600
H776        H  0.96747089  0.72233972  0.36826081     0.10700
H777        H  0.05776169  0.82895669  0.34447948     0.10400
H778        H  0.06186048  0.78835629  0.32287919     0.11500
H779        H  0.99363880  0.78579983  0.38236417     0.11600
H780        H  0.02502540  0.85432680  0.35725620     0.13500
H781        H  0.00674726  0.90296520  0.36582998     0.10000
H782        H  0.99834914  0.94076658  0.38751850     0.12100
H783        H  0.00357472  0.86383451  0.42424541     0.08700
H784        H  0.01313300  0.82763880  0.40297618     0.11400
C785        C  0.90634839  0.04112985  0.01996352    -0.03200
C786        C  0.87541034  0.04577566  0.01604395    -0.05800
C787        C  0.85205850  0.04625023  0.02852624    -0.20800
C788        C  0.85939884  0.04259581  0.04515228     0.24900
C789        C  0.89107451  0.03922494  0.04906717    -0.18400
C790        C  0.91427401  0.03864800  0.03664117    -0.08400
C791        C  0.83181409  0.03898233  0.05796966    -0.18700
C792        C  0.84088216  0.04622278  0.07405563    -0.23500
C793        C  0.81249491  0.03922450  0.08705169     0.26900
C794        C  0.82545464  0.06108634  0.10168443    -0.20200
C795        C  0.79950673  0.05559152  0.11412621    -0.09900
C796        C  0.76006478  0.02768626  0.11226735    -0.10400
C797        C  0.74728160  0.00455652  0.09791962    -0.03300
C798        C  0.77321036  0.01022528  0.08543168    -0.18500
H799        H  0.86842798  0.04767982  0.00332859     0.10600
H800        H  0.82771234  0.04866061  0.02516904     0.10700
H801        H  0.89721975  0.03523297  0.06164455     0.13800
H802        H  0.93784972  0.03506277  0.04013942     0.11500
H803        H  0.80310120  0.03014750  0.05394295     0.11600
H804        H  0.87045250  0.05895328  0.07791268     0.13500
H805        H  0.85567662  0.08300711  0.10336874     0.10000
H806        H  0.81023108  0.07338203  0.12517124     0.12100
H807        H  0.71705533  0.98286113  0.09613510     0.08700
H808        H  0.76239470  0.99172941  0.07459612     0.11400
C809        C  0.02033219  0.75177902  0.10587596    -0.03200
C810        C  0.99047436  0.75945164  0.10499949    -0.05800
C811        C  0.99151633  0.78622161  0.09328880    -0.20800
C812        C  0.02228441  0.80587404  0.08212793     0.24900
C813        C  0.05233709  0.79841748  0.08310857    -0.18400
C814        C  0.05122330  0.77157445  0.09477950    -0.08400
C815        C  0.02234757  0.83462850  0.07006912    -0.18700
C816        C  0.04488487  0.84831646  0.05651954    -0.23500
C817        C  0.04390785  0.87629466  0.04440256     0.26900
C818        C  0.05550810  0.87662430  0.02809753    -0.20200
C819        C  0.05355182  0.90130577  0.01616182    -0.09900
C820        C  0.04022902  0.92656765  0.02031046    -0.10400
C821        C  0.03027533  0.92751000  0.03683287    -0.03300
C822        C  0.03216532  0.90278043  0.04873951    -0.18500
H823        H  0.96655129  0.74521292  0.11353446     0.10600
H824        H  0.96814890  0.79162195  0.09296343     0.10700
H825        H  0.07713967  0.81353248  0.07512097     0.10400
H826        H  0.07454150  0.76611904  0.09503421     0.11500
H827        H  0.00167022  0.84348538  0.07215298     0.11600
H828        H  0.06318635  0.83697304  0.05350834     0.13500
H829        H  0.06519086  0.85692702  0.02447281     0.10000
H830        H  0.06154940  0.89979660  0.00360004     0.12100
H831        H  0.02029243  0.94687446  0.04055927     0.08700
H832        H  0.02444373  0.90460562  0.06129831     0.11400
C833        C  0.08800469  0.71396575  0.14711953    -0.03200
C834        C  0.08687414  0.70809867  0.16422604    -0.05800
C835        C  0.11815416  0.71086719  0.17240961    -0.20800
C836        C  0.15127537  0.71928263  0.16372046     0.24900
C837        C  0.15321034  0.72717516  0.14665808    -0.18400
C838        C  0.12182545  0.72466873  0.13846436    -0.08400
C839        C  0.18141988  0.71688851  0.17299900    -0.18700
C840        C  0.21294854  0.71969419  0.16638306    -0.23500
C841        C  0.23857855  0.71170512  0.17642409     0.26900
C842        C  0.27833265  0.73335376  0.17350298    -0.20200
C843        C  0.30273204  0.72649641  0.18317586    -0.09900
C844        C  0.28758939  0.69756753  0.19576464    -0.10400
C845        C  0.24771827  0.67468401  0.19814517    -0.03300
C846        C  0.22346996  0.68177238  0.18864743    -0.18500
H847        H  0.06131362  0.70036298  0.17122328     0.10600
H848        H  0.11587455  0.70500863  0.18555234     0.10700
H849        H  0.17821536  0.73425609  0.13945504     0.10400
H850        H  0.12332423  0.72930828  0.12525031     0.11500
H851        H  0.17645204  0.71077452  0.18613348     0.11600
H852        H  0.22051173  0.72796448  0.15357337     0.13500
H853        H  0.29053182  0.75610680  0.16397473     0.10000
H854        H  0.33343400  0.74424140  0.18104369     0.12100
H855        H  0.23531122  0.65128819  0.20740208     0.08700
H856        H  0.19281516  0.66339273  0.19074387     0.11400
C857        C  0.28473215  0.69464355  0.23341653    -0.03200
C858        C  0.28253722  0.72851472  0.23050612    -0.05800
C859        C  0.25586508  0.73373416  0.23896735    -0.20800
C860        C  0.23169818  0.70591352  0.25087847     0.24900
C861        C  0.23496026  0.67276298  0.25431370    -0.18400
C862        C  0.26140406  0.66729234  0.24565223    -0.08400
C863        C  0.20157149  0.71091737  0.25845460    -0.18700
C864        C  0.18674230  0.69713804  0.27354439    -0.23500
C865        C  0.15449786  0.69991025  0.28028934     0.26900
C866        C  0.14984545  0.69995395  0.29743123    -0.20200
C867        C  0.11781716  0.69904568  0.30407472    -0.09900
C868        C  0.08958972  0.69734804  0.29364576    -0.10400
C869        C  0.09477892  0.69842220  0.27652077    -0.03300
C870        C  0.12679901  0.69963005  0.26989690    -0.18500
H871        H  0.30090512  0.75051730  0.22139131     0.10600
H872        H  0.25385582  0.75945026  0.23609731     0.10700
H873        H  0.21614456  0.65026783  0.26316454     0.10400
H874        H  0.26258257  0.64095335  0.24806257     0.11500
H875        H  0.19205286  0.72764993  0.25139734     0.11600
H876        H  0.19884963  0.68391947  0.28130626     0.13500
H877        H  0.17067413  0.69994962  0.30568436     0.10000
H878        H  0.11425103  0.69790783  0.31732623     0.12100
H879        H  0.07343188  0.69725596  0.26823441     0.08700
H880        H  0.12877513  0.69855557  0.25664346     0.11400
C881        C  0.41516922  0.74799303  0.19908750    -0.03200
C882        C  0.42784525  0.78794457  0.20224253    -0.05800
C883        C  0.45906398  0.81846044  0.19357700    -0.20800
C884        C  0.47841559  0.80968208  0.18168599     0.24900
C885        C  0.46537245  0.76952792  0.17840513    -0.18400
C886        C  0.43394698  0.73898575  0.18704509    -0.08400
C887        C  0.51113361  0.84328249  0.17269774    -0.18700
C888        C  0.53960268  0.84120495  0.16538123    -0.23500
C889        C  0.57291519  0.87650687  0.15742539     0.26900
C890        C  0.60902395  0.88024523  0.15741242    -0.20200
C891        C  0.64143069  0.91483966  0.15121213    -0.09900
C892        C  0.63808297  0.94610946  0.14488435    -0.10400
C893        C  0.60162698  0.94135306  0.14404442    -0.03300
C894        C  0.56936294  0.90688013  0.15014663    -0.18500
H895        H  0.41333996  0.79547867  0.21132309     0.10600
H896        H  0.46824576  0.84909410  0.19622347     0.10700
H897        H  0.47886590  0.76154041  0.16903469     0.10400
H898        H  0.42458818  0.70834736  0.18445974     0.11500
H899        H  0.51298673  0.87176231  0.17306746     0.11600
H900        H  0.54020168  0.81407557  0.16633902     0.13500
H901        H  0.61239680  0.85701699  0.16275896     0.10000
H902        H  0.66927086  0.91785683  0.15197241     0.12100
H903        H  0.59822288  0.96471849  0.13887113     0.08700
H904        H  0.54175189  0.90429945  0.14926805     0.11400
C905        C  0.59558092  0.94710849  0.30231350    -0.03200
C906        C  0.55954079  0.94351612  0.30238548    -0.05800
C907        C  0.52741316  0.90993787  0.29572673    -0.20800
C908        C  0.53071048  0.87950670  0.28864330     0.24900
C909        C  0.56644305  0.88224311  0.28928294    -0.18400
C910        C  0.59854634  0.91576646  0.29601866    -0.08400
C911        C  0.49663256  0.84604806  0.28035774    -0.18700
C912        C  0.49978394  0.82587169  0.26773013    -0.23500
C913        C  0.46716618  0.79488202  0.25779129     0.26900
C914        C  0.47551557  0.77581161  0.24538884    -0.20200
C915        C  0.44678281  0.74838043  0.23490813    -0.09900
C916        C  0.40898679  0.73945207  0.23657882    -0.10400
C917        C  0.40010665  0.75736470  0.24923561    -0.03300
C918        C  0.42886893  0.78497323  0.25971763    -0.18500
H919        H  0.55632672  0.96693880  0.30745959     0.10600
H920        H  0.50014860  0.90831919  0.29564851     0.10700
H921        H  0.56986005  0.85871423  0.28455333     0.10400
H922        H  0.62594171  0.91769176  0.29588565     0.11500
H923        H  0.46873065  0.84017403  0.28411868     0.11600
H924        H  0.52825000  0.83362142  0.26381715     0.13500
H925        H  0.50459305  0.78257698  0.24363262     0.10000
H926        H  0.45412649  0.73437285  0.22539401     0.12100
H927        H  0.37103849  0.75085610  0.25070148     0.08700
H928        H  0.42078167  0.79875865  0.26897352     0.11400
C929        C  0.33198334  0.60744084  0.23153518    -0.03200
C930        C  0.35646179  0.59421819  0.22688888    -0.05800
C931        C  0.35671821  0.56388665  0.23569019    -0.20800
C932        C  0.33273255  0.54612915  0.24942583     0.24900
C933        C  0.30831847  0.55950073  0.25422120    -0.18400
C934        C  0.30811915  0.59006232  0.24535623    -0.08400
C935        C  0.33633602  0.51588107  0.25889251    -0.18700
C936        C  0.30939125  0.48856720  0.26917922    -0.23500
C937        C  0.31517382  0.45920106  0.27825196     0.26900
C938        C  0.28340372  0.42145880  0.28222784    -0.20200
C939        C  0.28854852  0.39268703  0.28994709    -0.09900
C940        C  0.32560202  0.40131657  0.29394205    -0.10400
C941        C  0.35714623  0.43972249  0.29066678    -0.03300
C942        C  0.35202250  0.46835357  0.28298392    -0.18500
H943        H  0.37594811  0.60785383  0.21656161     0.10600
H944        H  0.37613405  0.55454814  0.23184148     0.10700
H945        H  0.29018369  0.54729188  0.26500882     0.10400
H946        H  0.28938827  0.60011597  0.24930499     0.11500
H947        H  0.36217935  0.51523515  0.25670064     0.11600
H948        H  0.28178652  0.48609340  0.27029336     0.13500
H949        H  0.25467938  0.41384017  0.27891350     0.10000
H950        H  0.26369402  0.36331677  0.29229027     0.12100
H951        H  0.38593391  0.44762437  0.29401364     0.08700
H952        H  0.37703973  0.49767785  0.28081779     0.11400
C953        C  0.94663651  0.62199448  0.29243472    -0.03200
C954        C  0.91539143  0.59526916  0.30237587    -0.05800
C955        C  0.88153132  0.56491710  0.29522520    -0.20800
C956        C  0.87805644  0.56105754  0.27803193     0.24900
C957        C  0.90931578  0.58796572  0.26808742    -0.18400
C958        C  0.94318993  0.61810472  0.27523185    -0.08400
C959        C  0.84252746  0.52717764  0.27093085    -0.18700
C960        C  0.83064852  0.52730694  0.25546977    -0.23500
C961        C  0.79667401  0.49224910  0.24804899     0.26900
C962        C  0.77741190  0.49825105  0.23512538    -0.20200
C963        C  0.74638921  0.46579695  0.22736285    -0.09900
C964        C  0.73477941  0.42671478  0.23208356    -0.10400
C965        C  0.75360004  0.42058948  0.24512991    -0.03300
C966        C  0.78441942  0.45302910  0.25300874    -0.18500
H967        H  0.91747874  0.59731301  0.31567665     0.10600
H968        H  0.85803025  0.54424647  0.30314610     0.10700
H969        H  0.90822407  0.58526359  0.25481838     0.10400
H970        H  0.96680541  0.63841394  0.26728301     0.11500
H971        H  0.82523192  0.50159340  0.27889158     0.11600
H972        H  0.84564948  0.55429522  0.24804510     0.13500
H973        H  0.78639259  0.52812915  0.23103419     0.10000
H974        H  0.73168118  0.47124446  0.21757928     0.12100
H975        H  0.74530342  0.39065952  0.24884438     0.08700
H976        H  0.79931913  0.44719104  0.26256726     0.11400
C977        C  0.73286547  0.41903725  0.19496938    -0.03200
C978        C  0.72375294  0.44224625  0.18516762    -0.05800
C979        C  0.75166337  0.47237015  0.17511596    -0.20800
C980        C  0.78914707  0.47973565  0.17464745     0.24900
C981        C  0.79823582  0.45639960  0.18463950    -0.18400
C982        C  0.77018200  0.42619709  0.19468620    -0.08400
C983        C  0.81828317  0.51374186  0.16449363    -0.18700
C984        C  0.85171974  0.51800824  0.15965306    -0.23500
C985        C  0.88294434  0.55382729  0.15094513     0.26900
C986        C  0.91551375  0.55327309  0.14598675    -0.20200
C987        C  0.94764960  0.58748586  0.13959771    -0.09900
C988        C  0.94796143  0.62312777  0.13797659    -0.10400
C989        C  0.91474669  0.62331350  0.14201199    -0.03300
C990        C  0.88259230  0.58912306  0.14851927    -0.18500
H991        H  0.69549910  0.43813808  0.18577832     0.10600
H992        H  0.74407698  0.49036987  0.16784085     0.10700
H993        H  0.82705058  0.46197455  0.18516765     0.10400
H994        H  0.77766612  0.40881743  0.20244723     0.11500
H995        H  0.81126402  0.53563998  0.16086884     0.11600
H996        H  0.85707019  0.49438291  0.16239959     0.13500
H997        H  0.91664819  0.52660726  0.14757630     0.10000
H998        H  0.97277605  0.58643624  0.13635859     0.12100
H999        H  0.91438213  0.65051011  0.14096502     0.08700
H1000       H  0.85850341  0.59144853  0.15217417     0.11400
C1001       C  0.39972395  0.33343409  0.29347521    -0.03200
C1002       C  0.42403964  0.32702186  0.30351908    -0.05800
C1003       C  0.45484594  0.32600270  0.29659599    -0.20800
C1004       C  0.46206993  0.33178942  0.27958517     0.24900
C1005       C  0.43679230  0.33656117  0.26950062    -0.18400
C1006       C  0.40607248  0.33744661  0.27637790    -0.08400
C1007       C  0.49557832  0.33192777  0.27255815    -0.18700
C1008       C  0.51404614  0.35324229  0.25895265    -0.23500
C1009       C  0.54650859  0.35308442  0.25083236     0.26900
C1010       C  0.56656574  0.38094370  0.23816500    -0.20200
C1011       C  0.59573745  0.38044210  0.22945028    -0.09900
C1012       C  0.60521224  0.35186973  0.23319772    -0.10400
C1013       C  0.58592615  0.32462511  0.24602032    -0.03300
C1014       C  0.55665826  0.32492460  0.25470405    -0.18500
H1015       H  0.41983906  0.32383303  0.31673885     0.10600
H1016       H  0.47360873  0.32164616  0.30457525     0.10700
H1017       H  0.44040280  0.33924291  0.25625708     0.10400
H1018       H  0.38712115  0.34118335  0.26827190     0.11500
H1019       H  0.50578175  0.31532939  0.27918891     0.11600
H1020       H  0.50520497  0.37236835  0.25346305     0.13500
H1021       H  0.55933302  0.40288893  0.23486176     0.10000
H1022       H  0.61058652  0.40197646  0.21964544     0.12100
H1023       H  0.59252654  0.30213657  0.24894297     0.08700
H1024       H  0.54160961  0.30229389  0.26404930     0.11400
C1025       C  0.68129801  0.29544685  0.23748500    -0.03200
C1026       C  0.71315853  0.29145593  0.23541935    -0.05800
C1027       C  0.71868966  0.26655811  0.24587883    -0.20800
C1028       C  0.69269983  0.24531681  0.25872179     0.24900
C1029       C  0.66111077  0.25005418  0.26093298    -0.18400
C1030       C  0.65575662  0.27510982  0.25048629    -0.08400
C1031       C  0.69810797  0.21651319  0.26859532    -0.18700
C1032       C  0.67879267  0.19875370  0.28259819    -0.23500
C1033       C  0.67893256  0.16468914  0.29045891     0.26900
C1034       C  0.64496864  0.13483373  0.29797629    -0.20200
C1035       C  0.64226153  0.10047029  0.30429830    -0.09900
C1036       C  0.67373747  0.09542163  0.30353940    -0.10400
C1037       C  0.70858177  0.12626039  0.29686675    -0.03300
C1038       C  0.71112697  0.16058601  0.29026257    -0.18500
H1039       H  0.73358077  0.30734338  0.22558457     0.10600
H1040       H  0.74315260  0.26348886  0.24378883     0.10700
H1041       H  0.63962464  0.23368985  0.27029132     0.10400
H1042       H  0.63090620  0.27749134  0.25225068     0.11500
H1043       H  0.71739180  0.20805357  0.26356947     0.11600
H1044       H  0.65916283  0.20647843  0.28775760     0.13500
H1045       H  0.61990326  0.13742973  0.29841499     0.10000
H1046       H  0.61523396  0.07740313  0.30957625     0.12100
H1047       H  0.73331330  0.12313801  0.29620935     0.08700
H1048       H  0.73806346  0.18361416  0.28493279     0.11400
C1049       C  0.67622399  0.28545384  0.20030908    -0.03200
C1050       C  0.65133399  0.24537146  0.20464680    -0.05800
C1051       C  0.65398769  0.21560395  0.19678089    -0.20800
C1052       C  0.68163575  0.22526027  0.18446969     0.24900
C1053       C  0.70632523  0.26550976  0.17994397    -0.18400
C1054       C  0.70344624  0.29536734  0.18778117    -0.08400
C1055       C  0.68217638  0.19214740  0.17620436    -0.18700
C1056       C  0.71291678  0.19585711  0.16838781    -0.23500
C1057       C  0.71180552  0.16119243  0.16070226     0.26900
C1058       C  0.74543408  0.15992932  0.15990968    -0.20200
C1059       C  0.74450022  0.12656404  0.15347325    -0.09900
C1060       C  0.70988630  0.09401333  0.14764556    -0.10400
C1061       C  0.67667446  0.09611475  0.14779243    -0.03300
C1062       C  0.67761111  0.12932463  0.15418019    -0.18500
H1063       H  0.62973521  0.23711362  0.21411021     0.10600
H1064       H  0.63438067  0.18484227  0.20036658     0.10700
H1065       H  0.72730075  0.27397207  0.17020704     0.10400
H1066       H  0.72275509  0.32621897  0.18423069     0.11500
H1067       H  0.65639814  0.16278264  0.17741193     0.11600
H1068       H  0.74010505  0.22412069  0.16850514     0.13500
H1069       H  0.77221867  0.18432599  0.16467732     0.10000
H1070       H  0.77053616  0.12572688  0.15346920     0.12100
H1071       H  0.64986003  0.07196894  0.14292774     0.08700
H1072       H  0.65150483  0.12997632  0.15390988     0.11400
C1073       C  0.28026606  0.28284069  0.10395559    -0.03200
C1074       C  0.29413365  0.27007725  0.09110728    -0.05800
C1075       C  0.26916642  0.24429975  0.07906472    -0.20800
C1076       C  0.22976729  0.23032434  0.07971051     0.24900
C1077       C  0.21582939  0.24278800  0.09270613    -0.18400
C1078       C  0.24086901  0.26879026  0.10468824    -0.08400
C1079       C  0.20475156  0.20513829  0.06603783    -0.18700
C1080       C  0.16624671  0.18142616  0.06717456    -0.23500
C1081       C  0.14189158  0.15834367  0.05298771     0.26900
C1082       C  0.10720036  0.12223534  0.05584618    -0.20200
C1083       C  0.08375547  0.09989315  0.04266857    -0.09900
C1084       C  0.09432075  0.11357294  0.02633982    -0.10400
C1085       C  0.12858215  0.15039254  0.02358422    -0.03300
C1086       C  0.15204931  0.17249339  0.03672190    -0.18500
H1087       H  0.32447584  0.28088858  0.09013311     0.10600
H1088       H  0.28074560  0.23555059  0.06910518     0.10700
H1089       H  0.18590010  0.23361329  0.09343565     0.10400
H1090       H  0.22947817  0.27813389  0.11450241     0.11500
H1091       H  0.21887172  0.20565340  0.05463365     0.11600
H1092       H  0.15206054  0.17748096  0.07893496     0.13500
H1093       H  0.09850190  0.11100777  0.06829956     0.10000
H1094       H  0.05749992  0.07183587  0.04527984     0.12100
H1095       H  0.13747909  0.16222651  0.01122522     0.08700
H1096       H  0.17785620  0.20092411  0.03410200     0.11400
C1097       C  0.60281551  0.34142353  0.19568662    -0.03200
C1098       C  0.61196987  0.36316393  0.18088861    -0.05800
C1099       C  0.58318321  0.36168267  0.17111792    -0.20800
C1100       C  0.54447596  0.33784337  0.17573581     0.24900
C1101       C  0.53505617  0.31459387  0.19020777    -0.18400
C1102       C  0.56397247  0.31608566  0.19996979    -0.08400
C1103       C  0.51546619  0.34057027  0.16577813    -0.18700
C1104       C  0.47742518  0.31389287  0.16649189    -0.23500
C1105       C  0.44884234  0.31962307  0.15764636     0.26900
C1106       C  0.41226270  0.28637729  0.15447192    -0.20200
C1107       C  0.38406050  0.29097331  0.14691109    -0.09900
C1108       C  0.39186376  0.32903949  0.14238809    -0.10400
C1109       C  0.42859962  0.36226790  0.14551125    -0.03300
C1110       C  0.45659919  0.35771311  0.15318362    -0.18500
H1111       H  0.64145464  0.38218810  0.17701691     0.10600
H1112       H  0.59127488  0.37980780  0.16002648     0.10700
H1113       H  0.50567773  0.29622137  0.19438307     0.10400
H1114       H  0.55594394  0.29790232  0.21102300     0.11500
H1115       H  0.52628405  0.36583039  0.15741354     0.11600
H1116       H  0.46659856  0.28661165  0.17358116     0.13500
H1117       H  0.40538548  0.25677164  0.15797478     0.10000
H1118       H  0.35590188  0.26478207  0.14495240     0.12100
H1119       H  0.43583247  0.39198545  0.14203591     0.08700
H1120       H  0.48389813  0.38430466  0.15590618     0.11400
C1121       C  0.32622253  0.61103687  0.19394260    -0.03200
C1122       C  0.29589568  0.57197015  0.19727195    -0.05800
C1123       C  0.28987861  0.54046767  0.18730147    -0.20800
C1124       C  0.31358865  0.54729765  0.17361337     0.24900
C1125       C  0.34211577  0.58690109  0.16958876    -0.18400
C1126       C  0.34832633  0.61832706  0.17968309    -0.08400
C1127       C  0.30816822  0.51218105  0.16435239    -0.18700
C1128       C  0.33384133  0.51374701  0.15348278    -0.23500
C1129       C  0.33123687  0.47778814  0.14633637     0.26900
C1130       C  0.36524954  0.48076137  0.14097954    -0.20200
C1131       C  0.36510224  0.44709208  0.13569170    -0.09900
C1132       C  0.33079274  0.40971700  0.13544000    -0.10400
C1133       C  0.29629445  0.40702441  0.13978648    -0.03300
C1134       C  0.29645741  0.44074573  0.14520356    -0.18500
H1135       H  0.27724363  0.56565826  0.20778836     0.10600
H1136       H  0.26712618  0.51049484  0.19053872     0.10700
H1137       H  0.36008348  0.59409305  0.15881174     0.10400
H1138       H  0.37114708  0.64819158  0.17652124     0.11500
H1139       H  0.28353568  0.48339282  0.16777467     0.11600
H1140       H  0.35993693  0.54193704  0.15085207     0.13500
H1141       H  0.39232316  0.50900443  0.14143507     0.10000
H1142       H  0.39197578  0.45011229  0.13204872     0.12100
H1143       H  0.26941315  0.37858331  0.13954564     0.08700
H1144       H  0.26941016  0.43749200  0.14861174     0.11400
loop_ 
_geom_bond_atom_site_label_1 
_geom_bond_atom_site_label_2 
_geom_bond_distance 
_geom_bond_site_symmetry_2 
_ccdc_geom_bond_type 
C1            C2   1.405       .  A
C1            C6   1.406       .  A
C1         C1073   1.482       .  S
C2            C3   1.405       .  A
C2            H7   1.083       .  S
C3            C4   1.405       .  A
C3         C1108   1.488       .  S
C4            C5   1.403       .  A
C4            H8   1.083       .  S
C5            C6   1.403       .  A
C5         C1132   1.482       .  S
C6            H9   1.084       .  S
C10          H11   1.111       .  S
C10          C16   1.538       .  S
C10          C15   1.534       .  S
C10          C14   1.538       .  S
C12          H13   1.111       .  S
C12          C18   1.536       .  S
C12          C17   1.529       .  S
C12          C19   1.536       .  S
C14          C17   1.372       .  D
C14         C964   1.481       .  S
C15          C18   1.374       .  D
C15        C1025   1.486       .  S
C16          C19   1.378       .  D
C16        C1012   1.479       .  S
C17         C977   1.473       .  S
C18        C1049   1.479       .  S
C19        C1097   1.489       .  S
C20          H21   1.111       .  S
C20          C26   1.535       .  S
C20          C25   1.535       .  S
C20          C24   1.539       .  S
C22          H23   1.111       .  S
C22          C28   1.533       .  S
C22          C27   1.536       .  S
C22          C29   1.537       .  S
C24          C27   1.378       .  D
C24         C929   1.487       .  S
C25          C28   1.377       .  D
C25         C857   1.484       .  S
C26          C29   1.376       .  D
C26         C916   1.483       .  S
C27        C1121   1.490       .  S
C28         C844   1.484       .  S
C29         C881   1.481       .  S
C30          C31   1.410       .  A
C30          C35   1.410   1_455  A
C30         C809   1.489       .  S
C31          C32   1.403       .  A
C31          H36   1.083       .  S
C32          C33   1.400       .  A
C32         C833   1.482       .  S
C33          C34   1.401   1_455  A
C33          H37   1.084       .  S
C34          C35   1.404       .  A
C34         C988   1.481       .  S
C35          H38   1.083       .  S
C39          C40   1.408       .  A
C39          C44   1.409   1_545  A
C39         C796   1.484       .  S
C40          C41   1.402       .  A
C40          H45   1.083       .  S
C41          C42   1.401       .  A
C41        C1060   1.483       .  S
C42          C43   1.401   1_545  A
C42          H46   1.084       .  S
C43          C44   1.404       .  A
C43         C892   1.481       .  S
C44          H47   1.083       .  S
C48          C49   1.407       .  A
C48          C53   1.407   1_455  A
C48         C761   1.483       .  S
C49          C50   1.404       .  A
C49          H54   1.083       .  S
C50          C51   1.403       .  A
C50         C868   1.480       .  S
C51          C52   1.401   1_455  A
C51          H55   1.084       .  S
C52          C53   1.402       .  A
C52         C953   1.482       .  S
C53          H56   1.084       .  S
C57          C58   1.411       .  A
C57          C62   1.409   1_545  A
C57         C737   1.490       .  S
C58          C59   1.406       .  A
C58          H63   1.083       .  S
C59          C60   1.403       .  A
C59        C1036   1.485       .  S
C60          C61   1.401   1_545  A
C60          H64   1.084       .  S
C61          C62   1.403       .  A
C61         C905   1.484       .  S
C62          H65   1.083       .  S
C66          C67   1.408       .  A
C66          C71   1.408       .  A
C66         C724   1.486       .  S
C67          C68   1.404       .  A
C67          H72   1.083       .  S
C68          C69   1.403       .  A
C68        C1001   1.484       .  S
C69          C70   1.402       .  A
C69          H73   1.083       .  S
C70          C71   1.404       .  A
C70         C940   1.486       .  S
C71          H74   1.083       .  S
Zr75         O76   2.441   1_545  S
Zr75         O77   2.434       .  S
Zr75         O78   2.434   1_655  S
Zr75         O81   2.432   1_545  S
Zr75         O83   2.383   1_655  S
Zr75         O84   2.382       .  S
Zr75         O85   2.405   1_645  S
Zr75         O86   2.399   1_545  S
O76         H132   0.990   1_655  S
O76         H140   0.990   1_655  S
O77          C97   1.284       .  A
O78          C99   1.285       .  A
O79         Zr89   2.430       .  S
O79          C98   1.284       .  A
O80         Zr88   2.442       .  S
O80          C99   1.287       .  A
O81          C98   1.285       .  A
O82         Zr90   2.422       .  S
O82          C97   1.283       .  A
O83         Zr88   2.398       .  S
O83         Zr90   2.377   1_455  S
O84         Zr89   2.391   1_545  S
O84         Zr90   2.376       .  S
O84         H119   0.963       .  S
O85         Zr88   2.404   1_565  S
O85        Zr105   2.388   1_455  S
O85         H122   0.965       .  S
O86         Zr89   2.389       .  S
O86        Zr105   2.389       .  S
Zr87        O112   2.442       .  S
Zr87        O106   2.448   1_545  S
Zr87        O114   2.434   1_545  S
Zr87        O102   2.429   1_655  S
Zr87         O93   2.402       .  S
Zr87         O94   2.411   1_655  S
Zr87         O95   2.377   1_645  S
Zr87         O96   2.383   1_545  S
Zr88        O107   2.436       .  S
Zr88        O100   2.435       .  S
Zr88        O101   2.443       .  S
Zr88         O94   2.401       .  S
Zr88         O95   2.394   1_545  S
Zr89         O91   2.435       .  S
Zr89        O113   2.439       .  S
Zr89        O115   2.423       .  S
Zr89         O93   2.387   1_565  S
Zr89         O96   2.395       .  S
Zr90        O116   2.434       .  S
Zr90        O117   2.436       .  S
Zr90         O92   2.436   1_655  S
Zr90         O93   2.392       .  S
Zr90         O94   2.397   1_655  S
O91         H128   0.990       .  S
O92         H123   0.990       .  S
O92         H137   0.990       .  S
O94         H120   0.966       .  S
O95        Zr105   2.377   1_455  S
O96        Zr105   2.383       .  S
O96         H121   0.966       .  S
C97         C665   1.486       .  S
C98         C641   1.480       .  S
C99         C689   1.487       .  S
O100        H136   0.990       .  S
O101        C103   1.287       .  A
O102        C103   1.283       .  A
C103        C713   1.486       .  S
O104       Zr105   2.438       .  S
O104        H133   0.990       .  S
Zr105       O108   2.437   1_655  S
Zr105       O109   2.439       .  S
Zr105       O110   2.407       .  S
O106        C111   1.287       .  A
O107        H124   0.990       .  S
O107        H139   0.990       .  S
O108        H125   0.990       .  S
O109        H129   0.990       .  S
O109        H138   0.990       .  S
O110        C111   1.280       .  A
C111        C772   1.486       .  S
O112        H131   0.991   1_655  S
O112        H135   0.990   1_655  S
O113        H127   0.990       .  S
O113        H134   0.990   1_565  S
O114        C118   1.286       .  A
O115        C118   1.284       .  A
O116        H126   0.990       .  S
O117        H130   0.990   1_655  S
C118        C748   1.484       .  S
Zr141       O142   2.442   1_655  S
Zr141       O143   2.443   1_545  S
Zr141       O144   2.446   1_655  S
Zr141       O147   2.431       .  S
Zr141       O149   2.383   1_545  S
Zr141       O150   2.386   1_545  S
Zr141       O151   2.412   1_655  S
Zr141       O152   2.403   1_655  S
O142        H198   0.990       .  S
O142        H206   0.990       .  S
O143        C163   1.284       .  A
O144        C165   1.286   1_545  A
O145       Zr155   2.442       .  S
O145        C164   1.287       .  A
O146       Zr154   2.427       .  S
O146        C165   1.284       .  A
O147        C164   1.285       .  A
O148       Zr156   2.415       .  S
O148        C163   1.281       .  A
O149       Zr154   2.402   1_655  S
O149       Zr156   2.382       .  S
O150       Zr155   2.395   1_565  S
O150       Zr156   2.378       .  S
O150        H185   0.968       .  S
O151       Zr154   2.406   1_545  S
O151       Zr171   2.392       .  S
O151        H188   0.962       .  S
O152       Zr155   2.392   1_455  S
O152       Zr171   2.391       .  S
Zr153       O178   2.447   1_546  S
Zr153       O172   2.438   1_656  S
Zr153       O180   2.423   1_556  S
Zr153       O168   2.431   1_646  S
Zr153       O159   2.404   1_545  S
Zr153       O160   2.403   1_545  S
Zr153       O161   2.375   1_655  S
Zr153       O162   2.382   1_655  S
Zr154       O173   2.437   1_565  S
Zr154       O166   2.434       .  S
Zr154       O167   2.444       .  S
Zr154       O160   2.394   1_455  S
Zr154       O161   2.389   1_565  S
Zr155       O157   2.435       .  S
Zr155       O179   2.436       .  S
Zr155       O181   2.439       .  S
Zr155       O159   2.394   1_545  S
Zr155       O162   2.391   1_655  S
Zr156       O182   2.435       .  S
Zr156       O183   2.437       .  S
Zr156       O158   2.438       .  S
Zr156       O159   2.398       .  S
Zr156       O160   2.393       .  S
O157        H194   0.990       .  S
O158        H189   0.990       .  S
O158        H203   0.990       .  S
O160        H186   0.966       .  S
O161       Zr171   2.375       .  S
O162       Zr171   2.371       .  S
O162        H187   0.964       .  S
C163        C569   1.487       .  S
C164        C628   1.486       .  S
C165        C604   1.486       .  S
O166        H202   0.990       .  S
O167        C169   1.288   1_556  A
O168        C169   1.285       .  A
C169        C820   1.488       .  S
O170       Zr171   2.438       .  S
O170        H199   0.990       .  S
Zr171       O174   2.436       .  S
Zr171       O175   2.439       .  S
Zr171       O176   2.426       .  S
O172        C177   1.286       .  A
O173        H190   0.990   1_545  S
O173        H205   0.990       .  S
O174        H191   0.990       .  S
O175        H195   0.990       .  S
O175        H204   0.990       .  S
O176        C177   1.284   1_556  A
C177       C1084   1.488       .  S
O178        H197   0.990       .  S
O178        H201   0.990       .  S
O179        H193   0.990   1_545  S
O179        H200   0.990       .  S
O180        C184   1.284       .  A
O181        C184   1.286   1_556  A
O182        H192   0.990       .  S
O183        H196   0.990       .  S
C184        C785   1.484       .  S
C207        C208   1.408       .  A
C207        C212   1.408   1_655  A
C207        C676   1.489       .  S
C208        C209   1.404       .  A
C208        H213   1.083       .  S
C209        C210   1.402       .  A
C209        C532   1.485       .  S
C210        C211   1.406   1_655  A
C210        H214   1.082       .  S
C211        C212   1.407       .  A
C211        C556   1.496       .  S
C212        H215   1.082       .  S
C216        C217   1.412       .  A
C216        C221   1.413   1_655  A
C216        C617   1.496       .  S
C217        C218   1.404       .  A
C217        H222   1.083       .  S
C218        C219   1.399   1_655  A
C218        C473   1.481       .  S
C219        C220   1.400       .  A
C219        H223   1.084       .  S
C220        C221   1.406       .  A
C220        C508   1.487       .  S
C221        H224   1.082       .  S
C225        H226   1.111       .  S
C225        C231   1.532       .  S
C225        C230   1.537       .  S
C225        C229   1.535       .  S
C227        H228   1.111       .  S
C227        C233   1.535       .  S
C227        C232   1.536       .  S
C227        C234   1.535       .  S
C229        C232   1.377       .  D
C229        C425   1.479       .  S
C230        C233   1.378       .  D
C230        C521   1.490       .  S
C231        C234   1.374       .  D
C231        C377   1.480       .  S
C232        C449   1.487       .  S
C233        C484   1.479       .  S
C234        C401   1.481       .  S
C235        H236   1.111       .  S
C235        C241   1.529       .  S
C235        C240   1.530       .  S
C235        C239   1.532       .  S
C237        H238   1.111       .  S
C237        C243   1.537       .  S
C237        C242   1.538       .  S
C237        C244   1.538       .  S
C239        C242   1.376       .  D
C239        C340   1.477       .  S
C240        C243   1.375       .  D
C240        C292   1.484       .  S
C241        C244   1.375       .  D
C241        C497   1.480       .  S
C242        C353   1.483       .  S
C243        C305   1.478       .  S
C244        C545   1.481       .  S
C245        C246   1.408       .  A
C245        C250   1.411   1_545  A
C245        C700   1.489       .  S
C246        C247   1.401       .  A
C246        H251   1.083       .  S
C247        C248   1.400       .  A
C247        C436   1.478       .  S
C248        C249   1.401   1_545  A
C248        H252   1.084       .  S
C249        C250   1.406       .  A
C249        C364   1.481       .  S
C250        H253   1.083       .  S
C254        C255   1.407       .  A
C254        C259   1.408       .  A
C254        C652   1.489       .  S
C255        C256   1.403       .  A
C255        H260   1.083       .  S
C256        C257   1.402       .  A
C256        C388   1.481       .  S
C257        C258   1.404       .  A
C257        H261   1.084       .  S
C258        C259   1.406       .  A
C258        C316   1.485       .  S
C259        H262   1.083       .  S
C263        C264   1.410       .  A
C263        C268   1.409       .  A
C263        C580   1.489       .  S
C264        C265   1.408       .  A
C264        H269   1.083       .  S
C265        C266   1.404       .  A
C265        C281   1.488       .  S
C266        C267   1.400       .  A
C266        H270   1.084       .  S
C267        C268   1.401       .  A
C267        C412   1.481       .  S
C268        H271   1.083       .  S
C272        C273   1.411       .  A
C272        C277   1.406   1_545  A
C272        C593   1.481       .  S
C273        C274   1.408       .  A
C273        H278   1.083       .  S
C274        C275   1.402       .  A
C274        C460   1.484       .  S
C275        C276   1.397   1_545  A
C275        H279   1.084       .  S
C276        C277   1.398       .  A
C276        C329   1.473       .  S
C277        H280   1.084       .  S
C281        C282   1.405       .  A
C281        C286   1.406       .  A
C282        C283   1.402       .  A
C282        H295   1.083       .  S
C283        C284   1.406       .  A
C283        H296   1.083       .  S
C284        C285   1.407       .  A
C284        C287   1.489       .  S
C285        C286   1.395       .  A
C285        H297   1.081       .  S
C286        H298   1.083       .  S
C287        C288   1.350       .  D
C287        H299   1.083       .  S
C288        C289   1.491       .  S
C288        H300   1.085       .  S
C289        C290   1.407       .  A
C289        C294   1.410       .  A
C290        C291   1.399       .  A
C290        H301   1.083       .  S
C291        C292   1.401       .  A
C291        H302   1.083       .  S
C292        C293   1.403       .  A
C293        C294   1.397       .  A
C293        H303   1.083       .  S
C294        H304   1.079       .  S
C305        C306   1.400       .  A
C305        C310   1.402       .  A
C306        C307   1.393       .  A
C306        H319   1.083       .  S
C307        C308   1.403       .  A
C307        H320   1.083       .  S
C308        C309   1.410       .  A
C308        C311   1.485       .  S
C309        C310   1.402       .  A
C309        H321   1.081       .  S
C310        H322   1.083       .  S
C311        C312   1.347       .  D
C311        H323   1.085       .  S
C312        C313   1.490       .  S
C312        H324   1.085       .  S
C313        C314   1.405       .  A
C313        C318   1.408       .  A
C314        C315   1.401       .  A
C314        H325   1.083       .  S
C315        C316   1.405       .  A
C315        H326   1.083       .  S
C316        C317   1.404       .  A
C317        C318   1.396       .  A
C317        H327   1.083       .  S
C318        H328   1.081       .  S
C329        C330   1.402       .  A
C329        C334   1.402       .  A
C330        C331   1.395       .  A
C330        H343   1.083       .  S
C331        C332   1.402       .  A
C331        H344   1.083       .  S
C332        C333   1.408       .  A
C332        C335   1.479       .  S
C333        C334   1.398       .  A
C333        H345   1.082       .  S
C334        H346   1.083       .  S
C335        C336   1.346       .  D
C335        H347   1.085       .  S
C336        C337   1.482       .  S
C336        H348   1.086       .  S
C337        C338   1.403       .  A
C337        C342   1.408       .  A
C338        C339   1.396       .  A
C338        H349   1.083       .  S
C339        C340   1.402       .  A
C339        H350   1.083       .  S
C340        C341   1.401       .  A
C341        C342   1.395       .  A
C341        H351   1.084       .  S
C342        H352   1.081       .  S
C353        C354   1.401       .  A
C353        C358   1.404       .  A
C354        C355   1.394       .  A
C354        H367   1.083       .  S
C355        C356   1.404       .  A
C355        H368   1.083       .  S
C356        C357   1.409       .  A
C356        C359   1.486       .  S
C357        C358   1.404       .  A
C357        H369   1.082       .  S
C358        H370   1.083       .  S
C359        C360   1.349       .  D
C359        H371   1.086       .  S
C360        C361   1.490       .  S
C360        H372   1.085       .  S
C361        C362   1.406       .  A
C361        C366   1.408       .  A
C362        C363   1.403       .  A
C362        H373   1.083       .  S
C363        C364   1.404       .  A
C363        H374   1.083       .  S
C364        C365   1.403       .  A
C365        C366   1.396       .  A
C365        H375   1.083       .  S
C366        H376   1.082       .  S
C377        C378   1.401       .  A
C377        C382   1.401       .  A
C378        C379   1.397       .  A
C378        H391   1.083       .  S
C379        C380   1.406       .  A
C379        H392   1.083       .  S
C380        C381   1.411       .  A
C380        C383   1.491       .  S
C381        C382   1.397       .  A
C381        H393   1.079       .  S
C382        H394   1.083       .  S
C383        C384   1.348       .  D
C383        H395   1.085       .  S
C384        C385   1.486       .  S
C384        H396   1.082       .  S
C385        C386   1.404       .  A
C385        C390   1.408       .  A
C386        C387   1.398       .  A
C386        H397   1.083       .  S
C387        C388   1.403       .  A
C387        H398   1.083       .  S
C388        C389   1.404       .  A
C389        C390   1.398       .  A
C389        H399   1.083       .  S
C390        H400   1.081       .  S
C401        C402   1.400       .  A
C401        C406   1.404       .  A
C402        C403   1.398       .  A
C402        H415   1.083       .  S
C403        C404   1.404       .  A
C403        H416   1.083       .  S
C404        C405   1.409       .  A
C404        C407   1.486       .  S
C405        C406   1.398       .  A
C405        H417   1.082       .  S
C406        H418   1.083       .  S
C407        C408   1.346       .  D
C407        H419   1.085       .  S
C408        C409   1.486       .  S
C408        H420   1.086       .  S
C409        C410   1.403       .  A
C409        C414   1.409       .  A
C410        C411   1.396       .  A
C410        H421   1.083       .  S
C411        C412   1.404       .  A
C411        H422   1.083       .  S
C412        C413   1.403       .  A
C413        C414   1.400       .  A
C413        H423   1.083       .  S
C414        H424   1.081       .  S
C425        C426   1.404       .  A
C425        C430   1.401       .  A
C426        C427   1.396       .  A
C426        H439   1.083       .  S
C427        C428   1.403       .  A
C427        H440   1.083       .  S
C428        C429   1.407       .  A
C428        C431   1.480       .  S
C429        C430   1.395       .  A
C429        H441   1.082       .  S
C430        H442   1.083       .  S
C431        C432   1.345       .  D
C431        H443   1.086       .  S
C432        C433   1.481       .  S
C432        H444   1.086       .  S
C433        C434   1.403       .  A
C433        C438   1.407       .  A
C434        C435   1.398       .  A
C434        H445   1.083       .  S
C435        C436   1.404       .  A
C435        H446   1.083       .  S
C436        C437   1.403       .  A
C437        C438   1.395       .  A
C437        H447   1.083       .  S
C438        H448   1.082       .  S
C449        C450   1.405       .  A
C449        C454   1.404       .  A
C450        C451   1.401       .  A
C450        H463   1.083       .  S
C451        C452   1.403       .  A
C451        H464   1.083       .  S
C452        C453   1.407       .  A
C452        C455   1.487       .  S
C453        C454   1.398       .  A
C453        H465   1.083       .  S
C454        H466   1.083       .  S
C455        C456   1.346       .  D
C455        H467   1.086       .  S
C456        C457   1.487       .  S
C456        H468   1.087       .  S
C457        C458   1.402       .  A
C457        C462   1.410       .  A
C458        C459   1.395       .  A
C458        H469   1.083       .  S
C459        C460   1.404       .  A
C459        H470   1.083       .  S
C460        C461   1.405       .  A
C461        C462   1.404       .  A
C461        H471   1.083       .  S
C462        H472   1.082       .  S
C473        C474   1.403       .  A
C473        C478   1.403       .  A
C474        C475   1.394       .  A
C474        H487   1.083       .  S
C475        C476   1.404       .  A
C475        H488   1.084       .  S
C476        C477   1.411       .  A
C476        C479   1.488       .  S
C477        C478   1.401       .  A
C477        H489   1.080       .  S
C478        H490   1.083       .  S
C479        C480   1.347       .  D
C479        H491   1.086       .  S
C480        C481   1.486       .  S
C480        H492   1.083       .  S
C481        C482   1.403       .  A
C481        C486   1.409       .  A
C482        C483   1.398       .  A
C482        H493   1.083       .  S
C483        C484   1.403       .  A
C483        H494   1.083       .  S
C484        C485   1.401       .  A
C485        C486   1.396       .  A
C485        H495   1.083       .  S
C486        H496   1.082       .  S
C497        C498   1.401       .  A
C497        C502   1.402       .  A
C498        C499   1.398       .  A
C498        H511   1.084       .  S
C499        C500   1.405       .  A
C499        H512   1.083       .  S
C500        C501   1.409       .  A
C500        C503   1.488       .  S
C501        C502   1.397       .  A
C501        H513   1.080       .  S
C502        H514   1.083       .  S
C503        C504   1.349       .  D
C503        H515   1.084       .  S
C504        C505   1.490       .  S
C504        H516   1.084       .  S
C505        C506   1.406       .  A
C505        C510   1.408       .  A
C506        C507   1.401       .  A
C506        H517   1.083       .  S
C507        C508   1.404       .  A
C507        H518   1.083       .  S
C508        C509   1.406       .  A
C509        C510   1.395       .  A
C509        H519   1.083       .  S
C510        H520   1.080       .  S
C521        C522   1.403       .  A
C521        C526   1.406       .  A
C522        C523   1.400       .  A
C522        H535   1.083       .  S
C523        C524   1.405       .  A
C523        H536   1.083       .  S
C524        C525   1.409       .  A
C524        C527   1.491       .  S
C525        C526   1.401       .  A
C525        H537   1.082       .  S
C526        H538   1.083       .  S
C527        C528   1.349       .  D
C527        H539   1.085       .  S
C528        C529   1.491       .  S
C528        H540   1.085       .  S
C529        C530   1.404       .  A
C529        C534   1.410       .  A
C530        C531   1.397       .  A
C530        H541   1.083       .  S
C531        C532   1.405       .  A
C531        H542   1.083       .  S
C532        C533   1.404       .  A
C533        C534   1.403       .  A
C533        H543   1.083       .  S
C534        H544   1.081       .  S
C545        C546   1.402       .  A
C545        C550   1.401       .  A
C546        C547   1.394       .  A
C546        H559   1.083       .  S
C547        C548   1.404       .  A
C547        H560   1.083       .  S
C548        C549   1.411       .  A
C548        C551   1.488       .  S
C549        C550   1.400       .  A
C549        H561   1.079       .  S
C550        H562   1.083       .  S
C551        C552   1.347       .  D
C551        H563   1.087       .  S
C552        C553   1.483       .  S
C552        H564   1.083       .  S
C553        C554   1.401       .  A
C553        C558   1.405       .  A
C554        C555   1.400       .  A
C554        H565   1.083       .  S
C555        C556   1.410       .  A
C555        H566   1.081       .  S
C556        C557   1.409       .  A
C557        C558   1.395       .  A
C557        H567   1.082       .  S
C558        H568   1.083       .  S
C569        C570   1.407       .  A
C569        C574   1.407       .  A
C570        C571   1.395       .  A
C570        H583   1.083       .  S
C571        C572   1.402       .  A
C571        H584   1.084       .  S
C572        C573   1.409       .  A
C572        C575   1.488       .  S
C573        C574   1.403       .  A
C573        H585   1.081       .  S
C574        H586   1.083       .  S
C575        C576   1.349       .  D
C575        H587   1.085       .  S
C576        C577   1.490       .  S
C576        H588   1.085       .  S
C577        C578   1.405       .  A
C577        C582   1.407       .  A
C578        C579   1.402       .  A
C578        H589   1.083       .  S
C579        C580   1.406       .  A
C579        H590   1.083       .  S
C580        C581   1.406       .  A
C581        C582   1.396       .  A
C581        H591   1.083       .  S
C582        H592   1.081       .  S
C593        C594   1.404   1_545  A
C593        C598   1.404       .  A
C594        C595   1.396       .  A
C594        H607   1.083       .  S
C595        C596   1.402   1_565  A
C595        H608   1.083       .  S
C596        C597   1.409       .  A
C596        C599   1.485       .  S
C597        C598   1.401       .  A
C597        H609   1.082       .  S
C598        H610   1.083       .  S
C599        C600   1.346       .  D
C599        H611   1.085   1_545  S
C600        C601   1.489   1_545  S
C600        H612   1.086       .  S
C601        C602   1.403       .  A
C601        C606   1.409   1_565  A
C602        C603   1.397       .  A
C602        H613   1.083       .  S
C603        C604   1.407       .  A
C603        H614   1.083       .  S
C604        C605   1.407   1_565  A
C605        C606   1.400       .  A
C605        H615   1.083       .  S
C606        H616   1.081       .  S
C617        C618   1.409   1_655  A
C617        C622   1.410       .  A
C618        C619   1.399       .  A
C618        H631   1.082       .  S
C619        C620   1.402   1_455  A
C619        H632   1.083       .  S
C620        C621   1.405       .  A
C620        C623   1.485       .  S
C621        C622   1.401       .  A
C621        H633   1.083       .  S
C622        H634   1.082       .  S
C623        C624   1.347       .  D
C623        H635   1.087   1_655  S
C624        C625   1.486       .  S
C624        H636   1.086       .  S
C625        C626   1.404       .  A
C625        C630   1.405       .  A
C626        C627   1.402       .  A
C626        H637   1.083       .  S
C627        C628   1.406       .  A
C627        H638   1.083       .  S
C628        C629   1.408       .  A
C629        C630   1.399       .  A
C629        H639   1.083   1_655  S
C630        H640   1.083   1_655  S
C641        C642   1.407       .  A
C641        C646   1.405       .  A
C642        C643   1.400       .  A
C642        H655   1.083       .  S
C643        C644   1.403       .  A
C643        H656   1.083       .  S
C644        C645   1.406       .  A
C644        C647   1.483       .  S
C645        C646   1.397       .  A
C645        H657   1.083       .  S
C646        H658   1.083       .  S
C647        C648   1.346       .  D
C647        H659   1.086       .  S
C648        C649   1.483       .  S
C648        H660   1.087       .  S
C649        C650   1.402       .  A
C649        C654   1.406       .  A
C650        C651   1.398       .  A
C650        H661   1.083       .  S
C651        C652   1.406       .  A
C651        H662   1.083       .  S
C652        C653   1.407       .  A
C653        C654   1.400       .  A
C653        H663   1.083       .  S
C654        H664   1.082       .  S
C665        C666   1.406       .  A
C665        C670   1.408       .  A
C666        C667   1.395       .  A
C666        H679   1.083       .  S
C667        C668   1.402       .  A
C667        H680   1.083       .  S
C668        C669   1.409       .  A
C668        C671   1.487       .  S
C669        C670   1.402       .  A
C669        H681   1.081       .  S
C670        H682   1.083       .  S
C671        C672   1.347   1_655  D
C671        H683   1.085       .  S
C672        C673   1.489   1_455  S
C672        H684   1.085       .  S
C673        C674   1.402   1_655  A
C673        C678   1.409       .  A
C674        C675   1.398       .  A
C674        H685   1.083       .  S
C675        C676   1.406   1_455  A
C675        H686   1.083       .  S
C676        C677   1.406       .  A
C677        C678   1.400       .  A
C677        H687   1.083       .  S
C678        H688   1.081       .  S
C689        C690   1.407       .  A
C689        C694   1.407       .  A
C690        C691   1.397       .  A
C690        H703   1.083       .  S
C691        C692   1.403       .  A
C691        H704   1.083       .  S
C692        C693   1.410       .  A
C692        C695   1.492       .  S
C693        C694   1.402       .  A
C693        H705   1.080       .  S
C694        H706   1.083       .  S
C695        C696   1.348       .  D
C695        H707   1.085       .  S
C696        C697   1.490       .  S
C696        H708   1.084       .  S
C697        C698   1.403       .  A
C697        C702   1.409       .  A
C698        C699   1.398       .  A
C698        H709   1.083       .  S
C699        C700   1.407       .  A
C699        H710   1.083       .  S
C700        C701   1.406       .  A
C701        C702   1.401       .  A
C701        H711   1.083   1_545  S
C702        H712   1.081   1_545  S
C713        C714   1.408       .  A
C713        C718   1.406       .  A
C714        C715   1.397       .  A
C714        H727   1.083       .  S
C715        C716   1.402       .  A
C715        H728   1.084       .  S
C716        C717   1.408       .  A
C716        C719   1.486       .  S
C717        C718   1.401       .  A
C717        H729   1.082       .  S
C718        H730   1.083       .  S
C719        C720   1.346       .  D
C719        H731   1.086       .  S
C720        C721   1.485       .  S
C720        H732   1.086       .  S
C721        C722   1.403       .  A
C721        C726   1.407       .  A
C722        C723   1.397       .  A
C722        H733   1.083       .  S
C723        C724   1.405       .  A
C723        H734   1.083       .  S
C724        C725   1.406       .  A
C725        C726   1.399       .  A
C725        H735   1.083       .  S
C726        H736   1.082       .  S
C737        C738   1.405       .  A
C737        C742   1.407   1_545  A
C738        C739   1.399       .  A
C738        H751   1.083       .  S
C739        C740   1.406       .  A
C739        H752   1.083       .  S
C740        C741   1.409   1_545  A
C740        C743   1.493       .  S
C741        C742   1.398       .  A
C741        H753   1.079       .  S
C742        H754   1.083       .  S
C743        C744   1.349   1_545  D
C743        H755   1.085       .  S
C744        C745   1.488       .  S
C744        H756   1.082       .  S
C745        C746   1.403       .  A
C745        C750   1.408       .  A
C746        C747   1.397       .  A
C746        H757   1.083       .  S
C747        C748   1.407       .  A
C747        H758   1.083       .  S
C748        C749   1.406       .  A
C749        C750   1.399       .  A
C749        H759   1.083   1_565  S
C750        H760   1.081   1_565  S
C761        C762   1.404   1_455  A
C761        C766   1.406       .  A
C762        C763   1.395       .  A
C762        H775   1.083       .  S
C763        C764   1.402   1_655  A
C763        H776   1.083       .  S
C764        C765   1.408       .  A
C764        C767   1.483       .  S
C765        C766   1.401       .  A
C765        H777   1.082       .  S
C766        H778   1.083       .  S
C767        C768   1.348       .  D
C767        H779   1.085   1_455  S
C768        C769   1.489       .  S
C768        H780   1.086       .  S
C769        C770   1.406       .  A
C769        C774   1.406       .  A
C770        C771   1.403       .  A
C770        H781   1.083       .  S
C771        C772   1.406   1_455  A
C771        H782   1.083   1_455  S
C772        C773   1.407   1_655  A
C773        C774   1.393       .  A
C773        H783   1.083       .  S
C774        H784   1.081       .  S
C785        C786   1.407       .  A
C785        C790   1.406       .  A
C786        C787   1.401       .  A
C786        H799   1.083       .  S
C787        C788   1.405       .  A
C787        H800   1.083       .  S
C788        C789   1.406       .  A
C788        C791   1.486       .  S
C789        C790   1.394       .  A
C789        H801   1.081       .  S
C790        H802   1.083       .  S
C791        C792   1.348       .  D
C791        H803   1.086       .  S
C792        C793   1.483       .  S
C792        H804   1.085       .  S
C793        C794   1.403       .  A
C793        C798   1.407       .  A
C794        C795   1.397       .  A
C794        H805   1.083       .  S
C795        C796   1.405       .  A
C795        H806   1.083       .  S
C796        C797   1.405       .  A
C797        C798   1.398       .  A
C797        H807   1.083   1_545  S
C798        H808   1.082   1_545  S
C809        C810   1.406   1_455  A
C809        C814   1.405       .  A
C810        C811   1.399       .  A
C810        H823   1.083       .  S
C811        C812   1.405   1_655  A
C811        H824   1.083       .  S
C812        C813   1.408       .  A
C812        C815   1.492       .  S
C813        C814   1.398       .  A
C813        H825   1.080       .  S
C814        H826   1.083       .  S
C815        C816   1.350       .  D
C815        H827   1.085       .  S
C816        C817   1.489       .  S
C816        H828   1.084       .  S
C817        C818   1.404       .  A
C817        C822   1.407       .  A
C818        C819   1.400       .  A
C818        H829   1.083       .  S
C819        C820   1.407       .  A
C819        H830   1.083       .  S
C820        C821   1.408       .  A
C821        C822   1.399       .  A
C821        H831   1.083       .  S
C822        H832   1.082       .  S
C833        C834   1.403       .  A
C833        C838   1.404       .  A
C834        C835   1.394       .  A
C834        H847   1.083       .  S
C835        C836   1.404       .  A
C835        H848   1.084       .  S
C836        C837   1.410       .  A
C836        C839   1.488       .  S
C837        C838   1.402       .  A
C837        H849   1.080       .  S
C838        H850   1.083       .  S
C839        C840   1.348       .  D
C839        H851   1.087       .  S
C840        C841   1.484       .  S
C840        H852   1.083       .  S
C841        C842   1.404       .  A
C841        C846   1.407       .  A
C842        C843   1.401       .  A
C842        H853   1.083       .  S
C843        C844   1.404       .  A
C843        H854   1.083       .  S
C844        C845   1.402       .  A
C845        C846   1.394       .  A
C845        H855   1.083       .  S
C846        H856   1.082       .  S
C857        C858   1.403       .  A
C857        C862   1.403       .  A
C858        C859   1.395       .  A
C858        H871   1.083       .  S
C859        C860   1.402       .  A
C859        H872   1.083       .  S
C860        C861   1.408       .  A
C860        C863   1.482       .  S
C861        C862   1.400       .  A
C861        H873   1.082       .  S
C862        H874   1.081       .  S
C863        C864   1.345       .  D
C863        H875   1.086       .  S
C864        C865   1.485       .  S
C864        H876   1.086       .  S
C865        C866   1.405       .  A
C865        C870   1.407       .  A
C866        C867   1.401       .  A
C866        H877   1.083       .  S
C867        C868   1.404       .  A
C867        H878   1.083       .  S
C868        C869   1.403       .  A
C869        C870   1.394       .  A
C869        H879   1.083       .  S
C870        H880   1.082       .  S
C881        C882   1.402       .  A
C881        C886   1.402       .  A
C882        C883   1.397       .  A
C882        H895   1.083       .  S
C883        C884   1.405       .  A
C883        H896   1.083       .  S
C884        C885   1.408       .  A
C884        C887   1.485       .  S
C885        C886   1.400       .  A
C885        H897   1.082       .  S
C886        H898   1.081       .  S
C887        C888   1.349       .  D
C887        H899   1.086       .  S
C888        C889   1.487       .  S
C888        H900   1.085       .  S
C889        C890   1.406       .  A
C889        C894   1.406       .  A
C890        C891   1.402       .  A
C890        H901   1.083       .  S
C891        C892   1.404       .  A
C891        H902   1.083       .  S
C892        C893   1.404       .  A
C893        C894   1.394       .  A
C893        H903   1.083       .  S
C894        H904   1.082       .  S
C905        C906   1.405       .  A
C905        C910   1.404       .  A
C906        C907   1.398       .  A
C906        H919   1.083       .  S
C907        C908   1.403       .  A
C907        H920   1.083       .  S
C908        C909   1.409       .  A
C908        C911   1.488       .  S
C909        C910   1.399       .  A
C909        H921   1.081       .  S
C910        H922   1.083       .  S
C911        C912   1.349       .  D
C911        H923   1.083       .  S
C912        C913   1.491       .  S
C912        H924   1.085       .  S
C913        C914   1.406       .  A
C913        C918   1.410       .  A
C914        C915   1.397       .  A
C914        H925   1.083       .  S
C915        C916   1.401       .  A
C915        H926   1.083       .  S
C916        C917   1.403       .  A
C917        C918   1.400       .  A
C917        H927   1.083       .  S
C918        H928   1.079       .  S
C929        C930   1.403       .  A
C929        C934   1.404       .  A
C930        C931   1.394       .  A
C930        H943   1.083       .  S
C931        C932   1.402       .  A
C931        H944   1.083       .  S
C932        C933   1.409       .  A
C932        C935   1.485       .  S
C933        C934   1.403       .  A
C933        H945   1.082       .  S
C934        H946   1.081       .  S
C935        C936   1.347       .  D
C935        H947   1.086       .  S
C936        C937   1.488       .  S
C936        H948   1.085       .  S
C937        C938   1.404       .  A
C937        C942   1.407       .  A
C938        C939   1.402       .  A
C938        H949   1.083       .  S
C939        C940   1.406       .  A
C939        H950   1.083       .  S
C940        C941   1.405       .  A
C941        C942   1.395       .  A
C941        H951   1.083       .  S
C942        H952   1.082       .  S
C953        C954   1.404       .  A
C953        C958   1.405       .  A
C954        C955   1.398       .  A
C954        H967   1.083       .  S
C955        C956   1.404       .  A
C955        H968   1.083       .  S
C956        C957   1.407       .  A
C956        C959   1.483       .  S
C957        C958   1.396       .  A
C957        H969   1.082       .  S
C958        H970   1.083       .  S
C959        C960   1.346       .  D
C959        H971   1.086       .  S
C960        C961   1.483       .  S
C960        H972   1.086       .  S
C961        C962   1.403       .  A
C961        C966   1.408       .  A
C962        C963   1.396       .  A
C962        H973   1.083       .  S
C963        C964   1.404       .  A
C963        H974   1.082       .  S
C964        C965   1.401       .  A
C965        C966   1.397       .  A
C965        H975   1.083       .  S
C966        H976   1.082       .  S
C977        C978   1.399       .  A
C977        C982   1.400       .  A
C978        C979   1.395       .  A
C978        H991   1.081       .  S
C979        C980   1.404       .  A
C979        H992   1.083       .  S
C980        C981   1.411       .  A
C980        C983   1.486       .  S
C981        C982   1.398       .  A
C981        H993   1.081       .  S
C982        H994   1.083       .  S
C983        C984   1.347       .  D
C983        H995   1.082       .  S
C984        C985   1.490       .  S
C984        H996   1.085       .  S
C985        C986   1.404       .  A
C985        C990   1.412       .  A
C986        C987   1.395       .  A
C986        H997   1.083       .  S
C987        C988   1.404       .  A
C987        H998   1.083       .  S
C988        C989   1.402       .  A
C989        C990   1.399       .  A
C989        H999   1.083       .  S
C990       H1000   1.079       .  S
C1001      C1002   1.406       .  A
C1001      C1006   1.405       .  A
C1002      C1003   1.401       .  A
C1002      H1015   1.083       .  S
C1003      C1004   1.404       .  A
C1003      H1016   1.083       .  S
C1004      C1005   1.405       .  A
C1004      C1007   1.483       .  S
C1005      C1006   1.393       .  A
C1005      H1017   1.082       .  S
C1006      H1018   1.083       .  S
C1007      C1008   1.349       .  D
C1007      H1019   1.083       .  S
C1008      C1009   1.487       .  S
C1008      H1020   1.086       .  S
C1009      C1010   1.406       .  A
C1009      C1014   1.408       .  A
C1010      C1011   1.397       .  A
C1010      H1021   1.083       .  S
C1011      C1012   1.402       .  A
C1011      H1022   1.083       .  S
C1012      C1013   1.399       .  A
C1013      C1014   1.396       .  A
C1013      H1023   1.079       .  S
C1014      H1024   1.080       .  S
C1025      C1026   1.403       .  A
C1025      C1030   1.400       .  A
C1026      C1027   1.399       .  A
C1026      H1039   1.083       .  S
C1027      C1028   1.405       .  A
C1027      H1040   1.083       .  S
C1028      C1029   1.411       .  A
C1028      C1031   1.494       .  S
C1029      C1030   1.399       .  A
C1029      H1041   1.080       .  S
C1030      H1042   1.079       .  S
C1031      C1032   1.348       .  D
C1031      H1043   1.086       .  S
C1032      C1033   1.486       .  S
C1032      H1044   1.083       .  S
C1033      C1034   1.401       .  A
C1033      C1038   1.409       .  A
C1034      C1035   1.394       .  A
C1034      H1045   1.083       .  S
C1035      C1036   1.404       .  A
C1035      H1046   1.083       .  S
C1036      C1037   1.406       .  A
C1037      C1038   1.404       .  A
C1037      H1047   1.083       .  S
C1038      H1048   1.082       .  S
C1049      C1050   1.401       .  A
C1049      C1054   1.403       .  A
C1050      C1051   1.394       .  A
C1050      H1063   1.083       .  S
C1051      C1052   1.403       .  A
C1051      H1064   1.083       .  S
C1052      C1053   1.409       .  A
C1052      C1055   1.483       .  S
C1053      C1054   1.401       .  A
C1053      H1065   1.082       .  S
C1054      H1066   1.083       .  S
C1055      C1056   1.347       .  D
C1055      H1067   1.086       .  S
C1056      C1057   1.486       .  S
C1056      H1068   1.085       .  S
C1057      C1058   1.404       .  A
C1057      C1062   1.406       .  A
C1058      C1059   1.401       .  A
C1058      H1069   1.083       .  S
C1059      C1060   1.405       .  A
C1059      H1070   1.083       .  S
C1060      C1061   1.404       .  A
C1061      C1062   1.394       .  A
C1061      H1071   1.083       .  S
C1062      H1072   1.082       .  S
C1073      C1074   1.404       .  A
C1073      C1078   1.404       .  A
C1074      C1075   1.398       .  A
C1074      H1087   1.083       .  S
C1075      C1076   1.404       .  A
C1075      H1088   1.083       .  S
C1076      C1077   1.408       .  A
C1076      C1079   1.487       .  S
C1077      C1078   1.398       .  A
C1077      H1089   1.081       .  S
C1078      H1090   1.083       .  S
C1079      C1080   1.348       .  D
C1079      H1091   1.086       .  S
C1080      C1081   1.485       .  S
C1080      H1092   1.085       .  S
C1081      C1082   1.404       .  A
C1081      C1086   1.405       .  A
C1082      C1083   1.401       .  A
C1082      H1093   1.083       .  S
C1083      C1084   1.407       .  A
C1083      H1094   1.083       .  S
C1084      C1085   1.408       .  A
C1085      C1086   1.396       .  A
C1085      H1095   1.083       .  S
C1086      H1096   1.082       .  S
C1097      C1098   1.403       .  A
C1097      C1102   1.405       .  A
C1098      C1099   1.395       .  A
C1098      H1111   1.079       .  S
C1099      C1100   1.402       .  A
C1099      H1112   1.084       .  S
C1100      C1101   1.408       .  A
C1100      C1103   1.484       .  S
C1101      C1102   1.398       .  A
C1101      H1113   1.081       .  S
C1102      H1114   1.082       .  S
C1103      C1104   1.346       .  D
C1103      H1115   1.085       .  S
C1104      C1105   1.486       .  S
C1104      H1116   1.085       .  S
C1105      C1106   1.403       .  A
C1105      C1110   1.407       .  A
C1106      C1107   1.399       .  A
C1106      H1117   1.083       .  S
C1107      C1108   1.407       .  A
C1107      H1118   1.082       .  S
C1108      C1109   1.406       .  A
C1109      C1110   1.395       .  A
C1109      H1119   1.083       .  S
C1110      H1120   1.081       .  S
C1121      C1122   1.405       .  A
C1121      C1126   1.402       .  A
C1122      C1123   1.397       .  A
C1122      H1135   1.083       .  S
C1123      C1124   1.404       .  A
C1123      H1136   1.083       .  S
C1124      C1125   1.410       .  A
C1124      C1127   1.491       .  S
C1125      C1126   1.398       .  A
C1125      H1137   1.080       .  S
C1126      H1138   1.080       .  S
C1127      C1128   1.349       .  D
C1127      H1139   1.085       .  S
C1128      C1129   1.487       .  S
C1128      H1140   1.083       .  S
C1129      C1130   1.403       .  A
C1129      C1134   1.409       .  A
C1130      C1131   1.395       .  A
C1130      H1141   1.083       .  S
C1131      C1132   1.404       .  A
C1131      H1142   1.083       .  S
C1132      C1133   1.404       .  A
C1133      C1134   1.400       .  A
C1133      H1143   1.083       .  S
C1134      H1144   1.081       .  S
