geometry optimzed in LAMMPS
_audit_creation_date              2020-11-30 
_audit_creation_method            'lammps2cif' 
_symmetry_space_group_name_H-M    'P1' 
_symmetry_Int_Tables_number       1 
_symmetry_cell_setting            triclinic 
loop_ 
_symmetry_equiv_pos_as_xyz 
  x,y,z 
_cell_length_a                    38.27643132 
_cell_length_b                    38.24623685813734 
_cell_length_c                    32.876747151987885 
_cell_angle_alpha                 89.76478550767942 
_cell_angle_beta                  90.12905154521147 
_cell_angle_gamma                 120.06070750303824 
loop_ 
_atom_site_label 
_atom_site_type_symbol 
_atom_site_fract_x 
_atom_site_fract_y 
_atom_site_fract_z 
_atom_site_charge 
C1          C  0.25591680  0.27371562  0.99999625     0.80400
N2          N  0.27286030  0.29503950  0.03455511    -0.77900
C3          C  0.30441354  0.33336159  0.03276201     0.82900
N4          N  0.31923179  0.35040228  0.49604764    -0.77800
C5          C  0.30314444  0.32984959  0.46104612     0.83000
N6          N  0.27153918  0.29111435  0.46306028    -0.79500
C7          C  0.67446759  0.67895144  0.99672537     0.80400
N8          N  0.65652900  0.66752251  0.03397671    -0.77900
C9          C  0.61797547  0.63608706  0.03706536     0.82900
N10         N  0.59772288  0.61671100  0.50288431    -0.77800
C11         C  0.61534973  0.62788501  0.46577811     0.83000
N12         N  0.65388215  0.65894783  0.46289449    -0.79500
N13         N  0.46419237  0.48351641  0.18652042    -0.36400
N14         N  0.40953026  0.42388171  0.24566322    -0.57000
N15         N  0.46197073  0.47607088  0.30941381    -0.36400
N16         N  0.51983834  0.53214525  0.25041067    -0.57000
C17         C  0.44052867  0.45151339  0.16257937     0.27200
C18         C  0.49813921  0.50795948  0.16523491     0.27200
C19         C  0.43784242  0.44135087  0.32975396     0.27200
C20         C  0.49547201  0.49752284  0.33226178     0.27200
C21         C  0.38586851  0.41217998  0.21224052     0.35800
C22         C  0.38451620  0.40827265  0.27795786     0.35800
C23         C  0.53508532  0.55834268  0.21896944     0.35800
C24         C  0.53361087  0.55434776  0.28461482     0.35800
C25         C  0.45983688  0.45545765  0.12576059    -0.21700
C26         C  0.49618289  0.49109699  0.12742764    -0.21700
C27         C  0.45640974  0.44048020  0.36569295    -0.21700
C28         C  0.49287689  0.47594426  0.36724711    -0.21700
C29         C  0.34564830  0.38875213  0.22329522    -0.22700
C30         C  0.34479636  0.38636210  0.26506743    -0.22700
C31         C  0.55888927  0.59739799  0.23314462    -0.22700
C32         C  0.55781542  0.59488794  0.27491993    -0.22700
C33         C  0.40061492  0.42082007  0.17196126    -0.18100
C34         C  0.52900689  0.54669344  0.17779434    -0.18100
C35         C  0.52618558  0.53767753  0.32413721    -0.18100
C36         C  0.39779586  0.41272105  0.31864698    -0.18100
H37         H  0.44858472  0.43512704  0.10007381     0.14800
H38         H  0.51833481  0.50355870  0.10327276     0.14800
H39         H  0.44443346  0.41712008  0.38881145     0.14800
H40         H  0.51456867  0.48526581  0.39181492     0.14800
H41         H  0.31965210  0.37498891  0.20337795     0.13100
H42         H  0.31804960  0.37048427  0.28374081     0.13100
H43         H  0.57518825  0.62475227  0.21528399     0.13100
H44         H  0.57315364  0.61995943  0.29571306     0.13100
H45         H  0.45612776  0.48991840  0.21449367     0.26400
H46         H  0.45436687  0.48622483  0.28331282     0.26400
C47         C  0.68557874  0.97955161  0.00441791     0.80400
N48         N  0.66795924  0.98261441  0.03902447    -0.77900
C49         C  0.63755727  0.99106620  0.03721421     0.82900
N50         N  0.62452731  0.99617969  0.00053519    -0.78100
C51         C  0.64133891  0.99277306  0.46562561     0.83000
N52         N  0.67190591  0.98438735  0.46760477    -0.79500
C53         C  0.27365846  0.97722769  0.99937995     0.80400
N54         N  0.29465320  0.98058812  0.46491241    -0.77900
C55         C  0.33331164  0.98864134  0.46668230     0.82900
N56         N  0.35123007  0.99346301  0.00337176    -0.77800
C57         C  0.33084746  0.98964184  0.03836137     0.83000
N58         N  0.29170640  0.98119219  0.03639278    -0.79500
N59         N  0.48706163  0.99603414  0.19047232    -0.36400
N60         N  0.54144851  0.99251324  0.25107983    -0.57000
N61         N  0.49188524  0.99844540  0.31388196    -0.36400
N62         N  0.43428383  0.99555012  0.25335206    -0.57000
C63         C  0.50932435  0.98481421  0.16799396     0.27200
C64         C  0.45298652  0.98594908  0.16916678     0.27200
C65         C  0.51504790  0.98739664  0.33536582     0.27200
C66         C  0.45897140  0.98896529  0.33674111     0.27200
C67         C  0.56434877  0.00082121  0.21742378     0.35800
C68         C  0.56665139  0.00147073  0.28307290     0.35800
C69         C  0.41763322  0.00355439  0.22093488     0.35800
C70         C  0.42048132  0.00520168  0.28671614     0.35800
C71         C  0.48912831  0.96721307  0.13211112    -0.21700
C72         C  0.45355569  0.96791037  0.13286277    -0.21700
C73         C  0.49656949  0.97054634  0.37217188    -0.21700
C74         C  0.46109976  0.97141528  0.37299936    -0.21700
C75         C  0.60431062  0.01496415  0.22800491    -0.22700
C76         C  0.60575214  0.01531670  0.26980547    -0.22700
C77         C  0.39297525  0.01825419  0.23369862    -0.22700
C78         C  0.39471170  0.01922457  0.27552977    -0.22700
C79         C  0.54880571  0.99310708  0.17753888    -0.18100
C80         C  0.42291054  0.99535575  0.18031403    -0.18100
C81         C  0.42864439  0.99847726  0.32698041    -0.18100
C82         C  0.55385609  0.99505487  0.32388152    -0.18100
H83         H  0.49926227  0.95558344  0.10766000     0.14800
H84         H  0.43090736  0.95686831  0.10912927     0.14800
H85         H  0.50773965  0.95922648  0.39612873     0.14800
H86         H  0.43959975  0.96087902  0.39778022     0.14800
H87         H  0.62965787  0.02379613  0.20775686     0.13100
H88         H  0.63239037  0.02452475  0.28826642     0.13100
H89         H  0.37536410  0.02701041  0.21490029     0.13100
H90         H  0.37861702  0.02880785  0.29541537     0.13100
H91         H  0.49617253  0.01247167  0.21733342     0.26400
H92         H  0.49952104  0.01436171  0.28656427     0.26400
C93         C  0.98481671  0.26708572  0.00305371     0.80400
N94         N  0.98898285  0.28781263  0.46803008    -0.77900
C95         C  0.99737607  0.32667386  0.46904987     0.82900
N96         N  0.00091998  0.34475039  0.00537356    -0.77800
C97         C  0.99575251  0.32432995  0.04074260     0.83000
N98         N  0.98784705  0.28537464  0.03958024    -0.79500
C99         C  0.99124932  0.68303327  0.00739497     0.80400
N100        N  0.99544541  0.66603678  0.04195335    -0.77900
C101        C  0.00405851  0.63585785  0.04054190     0.82900
N102        N  0.00861513  0.62245222  0.00398287    -0.77800
C103        C  0.00373610  0.63831125  0.46881708     0.83000
N104        N  0.99479477  0.66866145  0.47053728    -0.79500
N105        N  0.00366538  0.48252058  0.19315276    -0.36400
N106        N  0.00429002  0.53791433  0.25510765    -0.57000
N107        N  0.00384541  0.48369563  0.31680028    -0.36400
N108        N  0.99639061  0.42512416  0.25471083    -0.57000
C109        C  0.99575149  0.50760549  0.17103438     0.27200
C110        C  0.99125865  0.44857796  0.17089683     0.27200
C111        C  0.99564855  0.50839667  0.33922794     0.27200
C112        C  0.99269652  0.44994273  0.33912850     0.27200
C113        C  0.01378481  0.56191868  0.22196289     0.35800
C114        C  0.01271685  0.56214452  0.28782751     0.35800
C115        C  0.00274913  0.40779075  0.22191992     0.35800
C116        C  0.00391211  0.40890153  0.28778615     0.35800
C117        C  0.97781357  0.48926924  0.13450090    -0.21700
C118        C  0.97500723  0.45202251  0.13442565    -0.21700
C119        C  0.97880552  0.48989510  0.37607126    -0.21700
C120        C  0.97711977  0.45312942  0.37608928    -0.21700
C121        C  0.02801040  0.60160709  0.23360819    -0.22700
C122        C  0.02727913  0.60173574  0.27544087    -0.22700
C123        C  0.01382285  0.38001556  0.23415905    -0.22700
C124        C  0.01470101  0.38081264  0.27598423    -0.22700
C125        C  0.00716774  0.54778523  0.18148114    -0.18100
C126        C  0.99725505  0.41603971  0.18125976    -0.18100
C127        C  0.99902389  0.41770973  0.32837419    -0.18100
C128        C  0.00557628  0.54830043  0.32851296    -0.18100
H129        H  0.96826537  0.50169951  0.11012236     0.14800
H130        H  0.96299180  0.43019571  0.11001678     0.14800
H131        H  0.96928620  0.50191876  0.40068764     0.14800
H132        H  0.96603013  0.43134139  0.40071454     0.14800
H133        H  0.03763409  0.62767429  0.21404655     0.13100
H134        H  0.03637582  0.62792666  0.29447569     0.13100
H135        H  0.02069410  0.36129208  0.21502042     0.13100
H136        H  0.02230327  0.36270773  0.29544804     0.13100
H137        H  0.01958456  0.48960722  0.22037885     0.26400
H138        H  0.01898706  0.49057646  0.28915407     0.26400
O139        O  0.92034141  0.89697287  0.02593103    -0.88100
C140        C  0.00774057  0.92856063  0.43896796     0.87900
Mg141      Mg  0.87524419  0.91457571  0.02281279     1.58100
O142        O  0.04221486  0.98527111  0.03006051    -0.87900
O143        O  0.96789845  0.90386532  0.06748919    -0.75200
C144        C  0.97232694  0.11049027  0.48619482     0.92900
O145        O  0.91210110  0.90849553  0.43016364    -0.75000
O146        O  0.93893003  0.07917064  0.47755284    -0.82500
Mg147      Mg  0.92815084  0.86997738  0.47167123     1.58000
C148        C  0.11571317  0.11329735  0.01605708     0.92900
O149        O  0.94222733  0.82478780  0.00311579    -0.80800
H150        H  0.05346142  0.98855539  0.08972888    -0.06100
C151        C  0.01393217  0.04024592  0.43853299     0.87800
O152        O  0.91142585  0.96782850  0.06606692    -0.75300
O153        O  0.99147054  0.91582187  0.47228933    -0.88100
O154        O  0.11614535  0.08150975  0.00509579    -0.80900
C155        C  0.11812490  0.96848402  0.48979919     0.93000
C156        C  0.97328672  0.82400979  0.01586796     0.92800
Mg157      Mg  0.01764259  0.06369066  0.02747142     1.58000
O158        O  0.00349447  0.10852963  0.49594175    -0.80800
O159        O  0.03521350  0.02702245  0.06945486    -0.75000
O160        O  0.08532981  0.93727161  0.50068718    -0.80900
O161        O  0.86129959  0.82132421  0.47373655    -0.82600
O162        O  0.86265831  0.99758730  0.00344787    -0.80900
C163        C  0.04451795  0.99993093  0.06396332     0.87300
O164        O  0.95494324  0.01758212  0.02801456    -0.88000
O165        O  0.02546261  0.03673497  0.47259119    -0.88200
O166        O  0.97786105  0.03197367  0.43233653    -0.75200
Mg167      Mg  0.02414765  0.92204774  0.02863198     1.58000
O168        O  0.11978769  0.00173868  0.48070393    -0.82600
H169        H  0.91037516  0.88473735  0.08529778    -0.06300
O170        O  0.90527784  0.95055309  0.46951650    -0.87900
H171        H  0.89584087  0.94842209  0.40952093    -0.06100
H172        H  0.95015714  0.02382861  0.08774667    -0.06300
C173        C  0.90368321  0.93630335  0.43549112     0.87200
C174        C  0.93160618  0.89422230  0.06036940     0.87800
C175        C  0.93922828  0.00427519  0.06150600     0.87900
H176        H  0.03476644  0.04968840  0.41325774    -0.06300
O177        O  0.03547124  0.96494766  0.43418797    -0.75300
Mg178      Mg  0.92212474  0.01319098  0.47257364     1.58000
H179        H  0.99739656  0.90855481  0.41304479    -0.06300
C180        C  0.82982754  0.82421642  0.47879099     0.92900
O181        O  0.82682483  0.93226803  0.01953357    -0.82500
C182        C  0.82946855  0.96626765  0.01287611     0.92900
O183        O  0.00582744  0.85593376  0.02551082    -0.82500
Mg184      Mg  0.07153314  0.01995718  0.47544075     1.58200
O185        O  0.83237451  0.85794761  0.48685270    -0.80900
O186        O  0.08311892  0.11274428  0.02484790    -0.82600
C187        C  0.98424314  0.71775019  0.01074803    -0.05300
C188        C  0.96350841  0.72548894  0.97999637    -0.32700
C189        C  0.95739186  0.75863615  0.98269929     0.36600
C190        C  0.97290194  0.78521751  0.01612605    -0.05600
C191        C  0.99303815  0.77719448  0.04708135    -0.32600
C192        C  0.99855138  0.74379407  0.04482773     0.36500
H193        H  0.95223512  0.70597923  0.45365142     0.16800
O194        O  0.93886606  0.76645761  0.95104758    -0.60100
H195        H  0.00546283  0.79752200  0.07272792     0.16800
O196        O  0.01931783  0.73786742  0.07559929    -0.60200
H197        H  0.04799661  0.75263774  0.06695525     0.43800
H198        H  0.90957045  0.75024501  0.45694740     0.43800
C199        C  0.00785415  0.62137242  0.42968510    -0.05300
C200        C  0.03510432  0.60692025  0.42770416    -0.32700
C201        C  0.03574716  0.58480613  0.39420233     0.36600
C202        C  0.00857469  0.57629040  0.36179432    -0.05600
C203        C  0.98272898  0.59253130  0.36259028    -0.32600
C204        C  0.98256905  0.61534989  0.39600589     0.36500
H205        H  0.05544179  0.61190179  0.45283197     0.16800
O206        O  0.06288833  0.57129492  0.39340476    -0.60100
H207        H  0.96170193  0.58635751  0.33784515     0.16800
O208        O  0.95557022  0.62897182  0.39666162    -0.60200
H209        H  0.96922902  0.65523884  0.38207663     0.43800
H210        H  0.05329495  0.54951126  0.41414796     0.43800
C211        C  0.01036389  0.57532852  0.14790607    -0.05300
C212        C  0.98339369  0.58999823  0.14619305    -0.32700
C213        C  0.98190737  0.61089684  0.11185869     0.36600
C214        C  0.00744868  0.61704244  0.07843109    -0.05600
C215        C  0.03536037  0.60352433  0.08077769    -0.32600
C216        C  0.03731698  0.58329500  0.11541534     0.36500
H217        H  0.96232133  0.58377243  0.17086494     0.16800
O218        O  0.95402484  0.62341558  0.11055041    -0.60100
H219        H  0.05547661  0.60835946  0.05554148     0.16800
O220        O  0.06442791  0.56978913  0.11656521    -0.60200
H221        H  0.08813735  0.59091567  0.13146992     0.43800
H222        H  0.92995940  0.60113576  0.09714373     0.43800
C223        C  0.97460590  0.15014030  0.48958073    -0.05300
C224        C  0.99360283  0.17397233  0.52395267    -0.32700
C225        C  0.99526537  0.21100568  0.02991746     0.36600
C226        C  0.97894585  0.22567233  0.50049119    -0.05600
C227        C  0.95960510  0.20157601  0.46619475    -0.32600
C228        C  0.95669088  0.16377031  0.46104252     0.36500
H229        H  0.00686214  0.16354689  0.04671589     0.16800
O230        O  0.01475763  0.23344649  0.06358098    -0.60100
H231        H  0.94678136  0.21215546  0.44314215     0.16800
O232        O  0.93798713  0.14132998  0.42713919    -0.60200
H233        H  0.90899500  0.12528189  0.43444494     0.43800
H234        H  0.99411795  0.22313138  0.08543131     0.43800
C235        C  0.99844350  0.34522779  0.07955198    -0.05300
C236        C  0.02802698  0.38614370  0.08337102    -0.32700
C237        C  0.02853440  0.40881875  0.11691287     0.36600
C238        C  0.99900572  0.39083829  0.14751949    -0.05600
C239        C  0.96996888  0.34960004  0.14441231    -0.32600
C240        C  0.96966343  0.32674525  0.11081465     0.36500
H241        H  0.05049112  0.40090029  0.05973904     0.16800
O242        O  0.05802389  0.44870246  0.11960557    -0.60100
H243        H  0.94676766  0.33546077  0.16745611     0.16800
O244        O  0.93933579  0.28734809  0.10732589    -0.60200
H245        H  0.94862232  0.27149110  0.12332233     0.43800
H246        H  0.05032411  0.46318260  0.09964519     0.43800
C247        C  0.00071397  0.34869049  0.43107656    -0.05300
C248        C  0.97189805  0.32963354  0.40025952    -0.32700
C249        C  0.97156041  0.35138312  0.36600582     0.36600
C250        C  0.00087135  0.39251171  0.36195108    -0.05600
C251        C  0.03087308  0.41095901  0.39182742    -0.32600
C252        C  0.03068460  0.38950482  0.42643115     0.36500
H253        H  0.94840994  0.29834662  0.40367804     0.16800
O254        O  0.94102191  0.33305931  0.33804940    -0.60100
H255        H  0.05377057  0.44252408  0.38884520     0.16800
O256        O  0.06016222  0.40850314  0.45532527    -0.60200
H257        H  0.05115371  0.42402872  0.47208740     0.43800
H258        H  0.94721657  0.31468148  0.32245920     0.43800
C259        C  0.23272182  0.97253661  0.49581721    -0.05300
C260        C  0.20352204  0.95233001  0.02611325    -0.32700
C261        C  0.16536287  0.94914555  0.02348698     0.36600
C262        C  0.15603626  0.96687233  0.49047244    -0.05600
C263        C  0.18498522  0.98663064  0.46009022    -0.32600
C264        C  0.22273553  0.98920999  0.46225524     0.36500
H265        H  0.21034135  0.93917160  0.05202022     0.16800
O266        O  0.13797193  0.92997327  0.05416230    -0.60100
H267        H  0.17848738  0.00063360  0.43469952     0.16800
O268        O  0.25006891  0.00929585  0.43179243    -0.60200
H269        H  0.26580193  0.03773844  0.44101985     0.43800
H270        H  0.14445537  0.95101694  0.07502963     0.43800
C271        C  0.35633149  0.99326632  0.42914046    -0.05300
C272        C  0.39744483  0.02267241  0.42754606    -0.32700
C273        C  0.42075108  0.02606572  0.39345318     0.36600
C274        C  0.40319761  0.99923006  0.36066934    -0.05600
C275        C  0.36181101  0.97074381  0.36160592    -0.32600
C276        C  0.33824235  0.96801201  0.39528891     0.36500
H277        H  0.41160904  0.04301128  0.45289438     0.16800
O278        O  0.46064153  0.05571038  0.39222914    -0.60100
H279        H  0.34802182  0.94982207  0.33661741     0.16800
O280        O  0.29820191  0.93885624  0.39587344    -0.60200
H281        H  0.28404798  0.95119896  0.38180278     0.43800
H282        H  0.47480195  0.04634003  0.41073162     0.43800
C283        C  0.35228092  0.99516951  0.07766148    -0.05300
C284        C  0.33292311  0.96938971  0.11088045    -0.32700
C285        C  0.35506954  0.97021267  0.14551834     0.36600
C286        C  0.39702311  0.99736225  0.14733713    -0.05600
C287        C  0.41566675  0.02482269  0.11532740    -0.32600
C288        C  0.39388060  0.02370292  0.08068097     0.36500
H289        H  0.30110876  0.94708442  0.10907907     0.16800
O290        O  0.33611764  0.94251948  0.17605797    -0.60100
H291        H  0.44778050  0.04624632  0.11652476     0.16800
O292        O  0.41363531  0.05069967  0.04975513    -0.60200
H293        H  0.42941534  0.04031920  0.03552580     0.43800
H294        H  0.32063443  0.95251489  0.19144931     0.43800
C295        C  0.72130195  0.97407646  0.00696443    -0.05300
C296        C  0.74935330  0.98835115  0.47500698    -0.32700
C297        C  0.78482477  0.98651797  0.47741224     0.36600
C298        C  0.79253374  0.96923043  0.01172033    -0.05600
C299        C  0.76413099  0.95368035  0.04324518    -0.32600
C300        C  0.72904154  0.95667576  0.04146162     0.36500
H301        H  0.74430296  0.00185930  0.44824939     0.16800
O302        O  0.81111458  0.00021550  0.44516117    -0.60100
H303        H  0.76946938  0.93982609  0.06954369     0.16800
O304        O  0.70210074  0.94153117  0.07308739    -0.60200
H305        H  0.71309858  0.96295394  0.09410860     0.43800
H306        H  0.82809515  0.02977386  0.44930846     0.43800
C307        C  0.58197977  0.99764973  0.35666119    -0.05300
C308        C  0.59238778  0.02684420  0.38698539    -0.32700
C309        C  0.61341861  0.02663273  0.42169932     0.36600
C310        C  0.62521980  0.99734747  0.42624052    -0.05600
C311        C  0.61734174  0.96981181  0.39454526    -0.32600
C312        C  0.59562853  0.96968280  0.35992832     0.36500
H313        H  0.58264359  0.04893820  0.38448456     0.16800
O314        O  0.62237111  0.05522881  0.45115484    -0.60100
H315        H  0.62596983  0.94693226  0.39764431     0.16800
O316        O  0.58539139  0.94041196  0.33096528    -0.60200
H317        H  0.61018509  0.94941625  0.31456448     0.43800
H318        H  0.59597915  0.04926078  0.46257021     0.43800
C319        C  0.61810347  0.99395854  0.07466348    -0.05300
C320        C  0.61037061  0.96665798  0.10672404    -0.32700
C321        C  0.58858496  0.96652887  0.14096333     0.36600
C322        C  0.57488590  0.99441167  0.14359535    -0.05600
C323        C  0.58418078  0.02280018  0.11241886    -0.32600
C324        C  0.60521160  0.02246635  0.07792000     0.36500
H325        H  0.61980305  0.94433212  0.10450626     0.16800
O326        O  0.57880509  0.93768865  0.17054922    -0.60100
H327        H  0.57413818  0.04467590  0.11442900     0.16800
O328        O  0.61370188  0.05060332  0.04787634    -0.60200
H329        H  0.58731232  0.04292034  0.03514400     0.43800
H330        H  0.60406297  0.94643921  0.18611117     0.43800
C331        C  0.71430062  0.71544037  0.49199691    -0.05300
C332        C  0.71764500  0.75319233  0.99754313    -0.32700
C333        C  0.75425544  0.78878029  0.99064377     0.36600
C334        C  0.78906592  0.78711290  0.47900971    -0.05600
C335        C  0.78518119  0.74889261  0.47267913    -0.32600
C336        C  0.74802817  0.71330596  0.47857693     0.36500
H337        H  0.69149438  0.75511057  0.00680708     0.16800
O338        O  0.75571393  0.82494066  0.99677886    -0.60100
H339        H  0.81115819  0.74645595  0.46398763     0.16800
O340        O  0.74538226  0.67656686  0.47276607    -0.60200
H341        H  0.73656751  0.66934315  0.44413652     0.43800
H342        H  0.74870965  0.83201234  0.97010548     0.43800
C343        C  0.59268749  0.60642248  0.42886891    -0.05300
C344        C  0.61338420  0.60278701  0.39537966    -0.32700
C345        C  0.59236175  0.58107635  0.36076749     0.36600
C346        C  0.55005365  0.56316408  0.35907505    -0.05600
C347        C  0.52956741  0.56792479  0.39197478    -0.32600
C348        C  0.55036051  0.58877911  0.42683528     0.36500
H349        H  0.64585228  0.61577196  0.39647135     0.16800
O350        O  0.61306405  0.57571896  0.32967284    -0.60100
H351        H  0.49704964  0.55463474  0.39090689     0.16800
O352        O  0.52903029  0.59247834  0.45833535    -0.60200
H353        H  0.51588121  0.56581333  0.47219736     0.43800
H354        H  0.62900432  0.60261157  0.31659875     0.43800
C355        C  0.55439572  0.57624491  0.14579278    -0.05300
C356        C  0.53536354  0.58674366  0.11562176    -0.32700
C357        C  0.55659209  0.60865360  0.08122293     0.36600
C358        C  0.59784983  0.62119310  0.07689004    -0.05600
C359        C  0.61784374  0.61384835  0.10879304    -0.32600
C360        C  0.59633302  0.59136965  0.14312671     0.36500
H361        H  0.50334508  0.57619324  0.11784075     0.16800
O362        O  0.53676003  0.61751431  0.05170389    -0.60100
H363        H  0.64952586  0.62317155  0.10590214     0.16800
O364        O  0.61581050  0.58168592  0.17226741    -0.60200
H365        H  0.63113754  0.60652013  0.18871938     0.43800
H366        H  0.51577839  0.59108526  0.04081041     0.43800
C367        C  0.22052502  0.23207251  0.00365076    -0.05300
C368        C  0.19534072  0.22205473  0.03804197    -0.32700
C369        C  0.16179356  0.18329975  0.04308738     0.36600
C370        C  0.15359732  0.15294796  0.01441467    -0.05600
C371        C  0.17906429  0.16257274  0.48035965    -0.32600
C372        C  0.21175390  0.20186933  0.47442178     0.36500
H373        H  0.20111399  0.24465934  0.06088993     0.16800
O374        O  0.13750984  0.17521129  0.07652454    -0.60100
H375        H  0.17260568  0.13993446  0.45732597     0.16800
O376        O  0.23530714  0.21005693  0.44040208    -0.60200
H377        H  0.22129243  0.21660755  0.41885404     0.43800
H378        H  0.11941831  0.18598985  0.06972945     0.43800
C379        C  0.36869247  0.38973319  0.35200801    -0.05300
C380        C  0.36374984  0.41164458  0.38328265    -0.32700
C381        C  0.34117524  0.39228785  0.41794331     0.36600
C382        C  0.32198748  0.34981598  0.42174268    -0.05600
C383        C  0.32476418  0.32749900  0.38923711    -0.32600
C384        C  0.34811243  0.34719683  0.35457914     0.36500
H385        H  0.37877578  0.44431456  0.38144544     0.16800
O386        O  0.33808256  0.41534557  0.44803824    -0.60100
H387        H  0.31057471  0.29493762  0.39155992     0.16800
O388        O  0.35283825  0.32493203  0.32474787    -0.60200
H389        H  0.32662848  0.31105845  0.31019649     0.43800
H390        H  0.36469999  0.42866875  0.46188317     0.43800
C391        C  0.32495467  0.35529873  0.07023704    -0.05300
C392        C  0.33031867  0.33429774  0.10251088    -0.32700
C393        C  0.35460464  0.35512526  0.13585017     0.36600
C394        C  0.37307885  0.39754421  0.13784422    -0.05600
C395        C  0.36603886  0.41829786  0.10650116    -0.32600
C396        C  0.34231909  0.39756880  0.07288220     0.36500
H397        H  0.31728529  0.30181822  0.10098751     0.16800
O398        O  0.36094379  0.33386356  0.16581666    -0.60100
H399        H  0.37955030  0.45084458  0.10787164     0.16800
O400        O  0.33658986  0.41898654  0.04263172    -0.60200
H401        H  0.31145735  0.41888796  0.05011195     0.43800
H402        H  0.38526440  0.33293514  0.15715686     0.43800
C403        C  0.25591613  0.27371676  0.49999654     0.80400
N404        N  0.27286017  0.29504059  0.53455536    -0.77900
C405        C  0.30441396  0.33336245  0.53276205     0.82900
N406        N  0.31923139  0.35040165  0.99604762    -0.77800
C407        C  0.30314448  0.32984886  0.96104595     0.83000
N408        N  0.27153971  0.29111332  0.96306002    -0.79500
C409        C  0.67446697  0.67895224  0.49672504     0.80400
N410        N  0.65652793  0.66752436  0.53397628    -0.77900
C411        C  0.61797435  0.63608892  0.53706507     0.82900
N412        N  0.59772361  0.61671014  0.00288447    -0.77800
C413        C  0.61534990  0.62788516  0.96577815     0.83000
N414        N  0.65388232  0.65894808  0.96289456    -0.79500
N415        N  0.46419315  0.48351804  0.68652032    -0.36400
N416        N  0.40953123  0.42388135  0.74566258    -0.57000
N417        N  0.46196895  0.47607185  0.80941360    -0.36400
N418        N  0.51983635  0.53214817  0.75041101    -0.57000
C419        C  0.44053123  0.45151439  0.66257928     0.27200
C420        C  0.49813998  0.50796230  0.66523535     0.27200
C421        C  0.43784116  0.44135149  0.82975353     0.27200
C422        C  0.49546985  0.49752452  0.83226191     0.27200
C423        C  0.38587033  0.41217963  0.71223928     0.35800
C424        C  0.38451630  0.40827212  0.77795660     0.35800
C425        C  0.53508288  0.55834606  0.71897008     0.35800
C426        C  0.53360748  0.55435040  0.78461543     0.35800
C427        C  0.45984064  0.45545936  0.62576110    -0.21700
C428        C  0.49618554  0.49109988  0.62742850    -0.21700
C429        C  0.45640844  0.44048131  0.86569272    -0.21700
C430        C  0.49287501  0.47594597  0.86724721    -0.21700
C431        C  0.34564984  0.38875166  0.72329298    -0.22700
C432        C  0.34479682  0.38636153  0.76506518    -0.22700
C433        C  0.55888505  0.59740146  0.73314572    -0.22700
C434        C  0.55781057  0.59489093  0.77492102    -0.22700
C435        C  0.40061772  0.42082009  0.67196039    -0.18100
C436        C  0.52900585  0.54669707  0.67779491    -0.18100
C437        C  0.52618278  0.53767965  0.82413759    -0.18100
C438        C  0.39779496  0.41272085  0.81864610    -0.18100
H439        H  0.44858988  0.43512851  0.60007445     0.14800
H440        H  0.51833791  0.50356240  0.60327408     0.14800
H441        H  0.44443249  0.41712108  0.88881111     0.14800
H442        H  0.51456657  0.48526787  0.89181524     0.14800
H443        H  0.31965412  0.37498859  0.70337509     0.13100
H444        H  0.31804955  0.37048384  0.78373788     0.13100
H445        H  0.57518335  0.62475604  0.71528540     0.13100
H446        H  0.57314756  0.61996232  0.79571448     0.13100
H447        H  0.45612711  0.48991952  0.71449306     0.26400
H448        H  0.45436491  0.48622546  0.78331246     0.26400
C449        C  0.68557534  0.97954482  0.50441656     0.80400
N450        N  0.66795622  0.98260771  0.53902336    -0.77900
C451        C  0.63755374  0.99105871  0.53721362     0.82900
N452        N  0.62452295  0.99617160  0.50053482    -0.78100
C453        C  0.64134368  0.99278114  0.96562626     0.83000
N454        N  0.67191026  0.98439487  0.96760592    -0.79500
C455        C  0.27365945  0.97723019  0.49938154     0.80400
N456        N  0.29465253  0.98058432  0.96491141    -0.77900
C457        C  0.33331100  0.98863763  0.96668234     0.82900
N458        N  0.35123102  0.99346518  0.50337133    -0.77800
C459        C  0.33084873  0.98964264  0.53836156     0.83000
N460        N  0.29170764  0.98119316  0.53639396    -0.79500
N461        N  0.48706261  0.99603217  0.69047273    -0.36400
N462        N  0.54145080  0.99251359  0.75108022    -0.57000
N463        N  0.49188690  0.99844446  0.81388208    -0.36400
N464        N  0.43428440  0.99554720  0.75335230    -0.57000
C465        C  0.50932472  0.98481107  0.66799492     0.27200
C466        C  0.45298738  0.98594691  0.66916731     0.27200
C467        C  0.51505092  0.98739741  0.83536584     0.27200
C468        C  0.45897253  0.98896228  0.83674113     0.27200
C469        C  0.56435041  0.00082080  0.71742387     0.35800
C470        C  0.56665455  0.00147342  0.78307281     0.35800
C471        C  0.41763409  0.00355215  0.72093529     0.35800
C472        C  0.42048132  0.00519770  0.78671670     0.35800
C473        C  0.48912806  0.96720884  0.63211263    -0.21700
C474        C  0.45355584  0.96790694  0.63286394    -0.21700
C475        C  0.49657287  0.97054607  0.87217173    -0.21700
C476        C  0.46110186  0.97141250  0.87299915    -0.21700
C477        C  0.60431277  0.01496569  0.72800428    -0.22700
C478        C  0.60575530  0.01532032  0.76980481    -0.22700
C479        C  0.39297579  0.01825141  0.73369946    -0.22700
C480        C  0.39471158  0.01922055  0.77553069    -0.22700
C481        C  0.54880626  0.99310420  0.67753950    -0.18100
C482        C  0.42291181  0.99535423  0.68031424    -0.18100
C483        C  0.42864444  0.99847278  0.82698083    -0.18100
C484        C  0.55385986  0.99505810  0.82388152    -0.18100
H485        H  0.49926144  0.95557814  0.60766201     0.14800
H486        H  0.43090723  0.95686443  0.60913071     0.14800
H487        H  0.50774411  0.95922717  0.89612848     0.14800
H488        H  0.43960174  0.96087498  0.89777994     0.14800
H489        H  0.62965970  0.02379756  0.70775580     0.13100
H490        H  0.63239408  0.02453004  0.78826536     0.13100
H491        H  0.37536479  0.02700798  0.71490135     0.13100
H492        H  0.37861654  0.02880317  0.79541658     0.13100
H493        H  0.49617392  0.01247058  0.71733330     0.26400
H494        H  0.49952217  0.01436112  0.78656459     0.26400
C495        C  0.98480927  0.26708207  0.50305414     0.80400
N496        N  0.98899014  0.28781624  0.96802964    -0.77900
C497        C  0.99738318  0.32667744  0.96904945     0.82900
N498        N  0.00091293  0.34474685  0.50537395    -0.77800
C499        C  0.99574526  0.32432639  0.54074303     0.83000
N500        N  0.98783968  0.28537101  0.53958072    -0.79500
C501        C  0.99124555  0.68303049  0.50739468     0.80400
N502        N  0.99544372  0.66603549  0.54195314    -0.77900
C503        C  0.00405801  0.63585739  0.54054193     0.82900
N504        N  0.00861340  0.62245078  0.50398297    -0.77800
C505        C  0.00374008  0.63831436  0.96881705     0.83000
N506        N  0.99479959  0.66866516  0.97053741    -0.79500
N507        N  0.00366843  0.48252291  0.69315257    -0.36400
N508        N  0.00429805  0.53791894  0.75510791    -0.57000
N509        N  0.00385021  0.48369874  0.81680039    -0.36400
N510        N  0.99639017  0.42512496  0.75471076    -0.57000
C511        C  0.99575703  0.50760966  0.67103436     0.27200
C512        C  0.99125894  0.44857975  0.67089676     0.27200
C513        C  0.99565496  0.50840082  0.83922834     0.27200
C514        C  0.99270058  0.44994575  0.83912870     0.27200
C515        C  0.01379374  0.56192347  0.72196319     0.35800
C516        C  0.01272519  0.56214912  0.78782783     0.35800
C517        C  0.00274647  0.40779023  0.72191955     0.35800
C518        C  0.00391210  0.40890222  0.78778575     0.35800
C519        C  0.97781797  0.48927407  0.63450101    -0.21700
C520        C  0.97500829  0.45202585  0.63442575    -0.21700
C521        C  0.97881222  0.48989976  0.87607194    -0.21700
C522        C  0.97712505  0.45313341  0.87608986    -0.21700
C523        C  0.02802041  0.60161204  0.73360859    -0.22700
C524        C  0.02728869  0.60174057  0.77544128    -0.22700
C525        C  0.01381904  0.38001405  0.73415816    -0.22700
C526        C  0.01469907  0.38081203  0.77598328    -0.22700
C527        C  0.00717577  0.54779003  0.68148139    -0.18100
C528        C  0.99725221  0.41603947  0.68125953    -0.18100
C529        C  0.99902624  0.41771170  0.82837410    -0.18100
C530        C  0.00558363  0.54830488  0.82851324    -0.18100
H531        H  0.96827096  0.50170557  0.61012261     0.14800
H532        H  0.96299114  0.43019904  0.61001701     0.14800
H533        H  0.96929397  0.50192413  0.90068857     0.14800
H534        H  0.96603520  0.43134553  0.90071525     0.14800
H535        H  0.03764478  0.62767938  0.71404699     0.13100
H536        H  0.03638576  0.62793150  0.79447617     0.13100
H537        H  0.02068871  0.36128961  0.71501923     0.13100
H538        H  0.02230143  0.36270693  0.79544666     0.13100
H539        H  0.01958764  0.48960848  0.72037861     0.26400
H540        H  0.01899122  0.49057872  0.78915386     0.26400
O541        O  0.92034081  0.89697147  0.52592648    -0.88100
C542        C  0.00773978  0.92856010  0.93897033     0.87900
Mg543      Mg  0.87524405  0.91457433  0.52280790     1.58100
O544        O  0.04221319  0.98527051  0.53005926    -0.87900
O545        O  0.96789639  0.90386333  0.56748625    -0.75200
C546        C  0.97232898  0.11049124  0.98619701     0.92900
O547        O  0.91210057  0.90849584  0.93016806    -0.75000
O548        O  0.93893151  0.07917187  0.97755593    -0.82500
Mg549      Mg  0.92815082  0.86997807  0.97167561     1.58000
C550        C  0.11571225  0.11329799  0.51605673     0.92900
O551        O  0.94222711  0.82478725  0.50311115    -0.80800
H552        H  0.05345959  0.98855482  0.58972767    -0.06100
C553        C  0.01393136  0.04024471  0.93853474     0.87800
O554        O  0.91142517  0.96782625  0.56606303    -0.75300
O555        O  0.99147046  0.91582236  0.97229217    -0.88100
O556        O  0.11614457  0.08151034  0.50509577    -0.80900
C557        C  0.11812497  0.96848349  0.98979782     0.93000
C558        C  0.97328592  0.82400895  0.51586458     0.92800
Mg559      Mg  0.01764141  0.06369058  0.52746973     1.58000
O560        O  0.00349623  0.10852997  0.99594348    -0.80800
O561        O  0.03521231  0.02702231  0.56945334    -0.75000
O562        O  0.08532989  0.93727157  0.00068670    -0.80900
O563        O  0.86129974  0.82132520  0.97374109    -0.82600
O564        O  0.86265665  0.99758510  0.50344187    -0.80900
C565        C  0.04451630  0.99993041  0.56396203     0.87300
O566        O  0.95494212  0.01758141  0.52801175    -0.88000
O567        O  0.02546268  0.03673443  0.97259274    -0.88200
O568        O  0.97786020  0.03197275  0.93233912    -0.75200
Mg569      Mg  0.02414644  0.92204689  0.52863031     1.58000
O570        O  0.11978824  0.00173841  0.98070273    -0.82600
H571        H  0.91037225  0.88473403  0.58529270    -0.06300
O572        O  0.90527708  0.95055344  0.96952066    -0.87900
H573        H  0.89583963  0.94842179  0.90952516    -0.06100
H574        H  0.95015553  0.02382600  0.58774414    -0.06300
C575        C  0.90368231  0.93630341  0.93549540     0.87200
C576        C  0.93160427  0.89421994  0.56036515     0.87800
C577        C  0.93922707  0.00427330  0.56150293     0.87900
H578        H  0.03476490  0.04968633  0.91325891    -0.06300
O579        O  0.03547062  0.96494688  0.93418927    -0.75300
Mg580      Mg  0.92212498  0.01319165  0.97257741     1.58000
H581        H  0.99739500  0.90855360  0.91304771    -0.06300
C582        C  0.82982753  0.82421699  0.97879611     0.92900
O583        O  0.82682482  0.93226619  0.51952948    -0.82500
C584        C  0.82946764  0.96626526  0.51287151     0.92900
O585        O  0.00582640  0.85593267  0.52550870    -0.82500
Mg586      Mg  0.07153346  0.01995684  0.97544118     1.58200
O587        O  0.83237410  0.85794770  0.98685958    -0.80900
O588        O  0.08311788  0.11274490  0.52484713    -0.82600
C589        C  0.98423916  0.71774741  0.51074726    -0.05300
C590        C  0.96350918  0.72548897  0.47999262    -0.32700
C591        C  0.95739399  0.75863709  0.48269416     0.36600
C592        C  0.97290052  0.78521646  0.51612273    -0.05600
C593        C  0.99303181  0.77719071  0.54708097    -0.32600
C594        C  0.99854369  0.74378941  0.54482867     0.36500
H595        H  0.95223136  0.70597747  0.95365664     0.16800
O596        O  0.93887326  0.76646147  0.45103969    -0.60100
H597        H  0.00545358  0.79751668  0.57272902     0.16800
O598        O  0.01930522  0.73786013  0.57560346    -0.60200
H599        H  0.04798517  0.75262977  0.56696327     0.43800
H600        H  0.90956413  0.75024063  0.95695944     0.43800
C601        C  0.00785943  0.62137645  0.92968499    -0.05300
C602        C  0.03511005  0.60692480  0.92770453    -0.32700
C603        C  0.03575368  0.58481096  0.89420277     0.36600
C604        C  0.00858157  0.57629497  0.86179437    -0.05600
C605        C  0.98273554  0.59253552  0.86258981    -0.32600
C606        C  0.98257477  0.61535380  0.89600537     0.36500
H607        H  0.05544713  0.61190641  0.95283273     0.16800
O608        O  0.06289517  0.57130013  0.89340574    -0.60100
H609        H  0.96170876  0.58636157  0.83784437     0.16800
O610        O  0.95557546  0.62897514  0.89666069    -0.60200
H611        H  0.96923438  0.65524256  0.88207643     0.43800
H612        H  0.05330169  0.54951641  0.91414888     0.43800
C613        C  0.01037114  0.57533345  0.64790680    -0.05300
C614        C  0.98340019  0.59000229  0.64619485    -0.32700
C615        C  0.98191147  0.61089928  0.61186028     0.36600
C616        C  0.00745114  0.61704419  0.57843139    -0.05600
C617        C  0.03536403  0.60352751  0.58077709    -0.32600
C618        C  0.03732300  0.58329975  0.61541497     0.36500
H619        H  0.96232876  0.58377661  0.67086763     0.16800
O620        O  0.95402793  0.62341678  0.61055301    -0.60100
H621        H  0.05547918  0.60836231  0.55553994     0.16800
O622        O  0.06443475  0.56979488  0.61656395    -0.60200
H623        H  0.08814631  0.59092436  0.63146365     0.43800
H624        H  0.92996207  0.60113591  0.59714797     0.43800
C625        C  0.97460918  0.15014187  0.98958232    -0.05300
C626        C  0.99360616  0.17397385  0.02395427    -0.32700
C627        C  0.99526037  0.21100327  0.52991674     0.36600
C628        C  0.97895248  0.22567563  0.00049102    -0.05600
C629        C  0.95961180  0.20157940  0.96619451    -0.32600
C630        C  0.95669595  0.16377288  0.96104313     0.36500
H631        H  0.00686004  0.16354607  0.54671365     0.16800
O632        O  0.01475266  0.23344419  0.56358019    -0.60100
H633        H  0.94678927  0.21215948  0.94314125     0.16800
O634        O  0.93799235  0.14133269  0.92713968    -0.60200
H635        H  0.90900035  0.12528369  0.93444571     0.43800
H636        H  0.99411315  0.22312880  0.58543068     0.43800
C637        C  0.99843705  0.34522471  0.57955235    -0.05300
C638        C  0.02802150  0.38614033  0.58337099    -0.32700
C639        C  0.02852983  0.40881621  0.61691247     0.36600
C640        C  0.99900102  0.39083703  0.64751912    -0.05600
C641        C  0.96996318  0.34959899  0.64441242    -0.32600
C642        C  0.96965694  0.32674328  0.61081517     0.36500
H643        H  0.05048579  0.40089605  0.55973897     0.16800
O644        O  0.05802060  0.44869946  0.61960493    -0.60100
H645        H  0.94676202  0.33546057  0.66745640     0.16800
O646        O  0.93932867  0.28734634  0.60732700    -0.60200
H647        H  0.94861474  0.27148922  0.62332391     0.43800
H648        H  0.05032201  0.46318015  0.59964401     0.43800
C649        C  0.00072003  0.34869378  0.93107618    -0.05300
C650        C  0.97190399  0.32963606  0.90025940    -0.32700
C651        C  0.97156493  0.35138521  0.86600593     0.36600
C652        C  0.00087476  0.39251418  0.86195101    -0.05600
C653        C  0.03087667  0.41096229  0.89182710    -0.32600
C654        C  0.03068937  0.38950858  0.92643074     0.36500
H655        H  0.94841675  0.29834881  0.90367801     0.16800
O656        O  0.94102606  0.33306055  0.83804999    -0.60100
H657        H  0.05377333  0.44252765  0.88884481     0.16800
O658        O  0.06016685  0.40850789  0.95532478    -0.60200
H659        H  0.05115735  0.42403264  0.97208693     0.43800
H660        H  0.94721944  0.31468082  0.82246158     0.43800
C661        C  0.23272067  0.97253361  0.99581477    -0.05300
C662        C  0.20352187  0.95232941  0.52611369    -0.32700
C663        C  0.16536234  0.94914426  0.52348717     0.36600
C664        C  0.15603580  0.96687089  0.99047057    -0.05600
C665        C  0.18498316  0.98662525  0.96008607    -0.32600
C666        C  0.22273308  0.98920354  0.96225069     0.36500
H667        H  0.21034033  0.93916852  0.55201912     0.16800
O668        O  0.13797003  0.92996841  0.55416054    -0.60100
H669        H  0.17848436  0.00062583  0.93469388     0.16800
O670        O  0.25006477  0.00928495  0.93178534    -0.60200
H671        H  0.26579860  0.03772881  0.94100880     0.43800
H672        H  0.14445214  0.95100980  0.57503015     0.43800
C673        C  0.35633134  0.99326138  0.92914115    -0.05300
C674        C  0.39744483  0.02266704  0.92754706    -0.32700
C675        C  0.42075125  0.02606010  0.89345442     0.36600
C676        C  0.40319769  0.99922488  0.86067021    -0.05600
C677        C  0.36181113  0.97073850  0.86160684    -0.32600
C678        C  0.33824243  0.96800663  0.89528985     0.36500
H679        H  0.41160902  0.04300595  0.95289536     0.16800
O680        O  0.46064196  0.05570417  0.89223091    -0.60100
H681        H  0.34802198  0.94981678  0.83661832     0.16800
O682        O  0.29820217  0.93885042  0.89587467    -0.60200
H683        H  0.28404798  0.95119223  0.88180278     0.43800
H684        H  0.47480153  0.04633417  0.91073500     0.43800
C685        C  0.35228267  0.99516907  0.57766128    -0.05300
C686        C  0.33292474  0.96938931  0.61088025    -0.32700
C687        C  0.35507103  0.97021191  0.64551814     0.36600
C688        C  0.39702470  0.99736106  0.64733704    -0.05600
C689        C  0.41566867  0.02482112  0.61532705    -0.32600
C690        C  0.39388260  0.02370178  0.58068064     0.36500
H691        H  0.30111024  0.94708448  0.60907900     0.16800
O692        O  0.33611882  0.94251883  0.67605779    -0.60100
H693        H  0.44778253  0.04624431  0.61652433     0.16800
O694        O  0.41363761  0.05069853  0.54975485    -0.60200
H695        H  0.42941680  0.04031738  0.53552502     0.43800
H696        H  0.32063541  0.95251425  0.69144875     0.43800
C697        C  0.72129923  0.97407051  0.50696259    -0.05300
C698        C  0.74936099  0.98836482  0.97501339    -0.32700
C699        C  0.78483185  0.98653061  0.97741976     0.36600
C700        C  0.79253225  0.96922666  0.51171641    -0.05600
C701        C  0.76413464  0.95368413  0.54324607    -0.32600
C702        C  0.72904462  0.95667851  0.54146344     0.36500
H703        H  0.74431491  0.00187978  0.94825874     0.16800
O704        O  0.81112651  0.00023580  0.94517277    -0.60100
H705        H  0.76947759  0.93983677  0.56954755     0.16800
O706        O  0.70210933  0.94154189  0.57309433    -0.60200
H707        H  0.71311037  0.96297027  0.59410973     0.43800
H708        H  0.82810622  0.02979321  0.94932706     0.43800
C709        C  0.58198434  0.99765490  0.85666103    -0.05300
C710        C  0.59239088  0.02684926  0.88698505    -0.32700
C711        C  0.61342180  0.02663885  0.92169928     0.36600
C712        C  0.62522471  0.99735491  0.92624086    -0.05600
C713        C  0.61734819  0.96981952  0.89454572    -0.32600
C714        C  0.59563474  0.96968933  0.85992855     0.36500
H715        H  0.58264520  0.04894209  0.88448398     0.16800
O716        O  0.62237210  0.05523428  0.95115498    -0.60100
H717        H  0.62597748  0.94694089  0.89764513     0.16800
O718        O  0.58539861  0.94041838  0.83096588    -0.60200
H719        H  0.61019262  0.94942315  0.81456544     0.43800
H720        H  0.59597957  0.04926289  0.96257166     0.43800
C721        C  0.61810116  0.99395219  0.57466329    -0.05300
C722        C  0.61037096  0.96665395  0.60672553    -0.32700
C723        C  0.58858649  0.96652611  0.64096533     0.36600
C724        C  0.57488586  0.99440778  0.64359592    -0.05600
C725        C  0.58417860  0.02279430  0.61241792    -0.32600
C726        C  0.60520821  0.02245921  0.57791875     0.36500
H727        H  0.61980456  0.94432890  0.60450878     0.16800
O728        O  0.57880935  0.93768822  0.67055322    -0.60100
H729        H  0.57413504  0.04466934  0.61442708     0.16800
O730        O  0.61369602  0.05059413  0.54787355    -0.60200
H731        H  0.58730581  0.04290831  0.53514112     0.43800
H732        H  0.60406829  0.94644077  0.68611390     0.43800
C733        C  0.71430098  0.71543992  0.99199775    -0.05300
C734        C  0.71764528  0.75319316  0.49754146    -0.32700
C735        C  0.75425575  0.78878068  0.49064062     0.36600
C736        C  0.78906613  0.78711326  0.97901341    -0.05600
C737        C  0.78518203  0.74889336  0.97268186    -0.32600
C738        C  0.74802911  0.71330629  0.97857836     0.36500
H739        H  0.69149508  0.75511202  0.50680568     0.16800
O740        O  0.75571481  0.82494144  0.49677478    -0.60100
H741        H  0.81115946  0.74645728  0.96399075     0.16800
O742        O  0.74538389  0.67656756  0.97276697    -0.60200
H743        H  0.73656870  0.66934380  0.94413754     0.43800
H744        H  0.74871032  0.83201255  0.47010120     0.43800
C745        C  0.59268688  0.60642354  0.92886893    -0.05300
C746        C  0.61338305  0.60279037  0.89537790    -0.32700
C747        C  0.59235984  0.58108002  0.86076590     0.36600
C748        C  0.55005146  0.56316598  0.85907532    -0.05600
C749        C  0.52956573  0.56792463  0.89197678    -0.32600
C750        C  0.55035957  0.58877828  0.92683721     0.36500
H751        H  0.64585134  0.61577667  0.89646809     0.16800
O752        O  0.61306174  0.57572448  0.82966961    -0.60100
H753        H  0.49704775  0.55463321  0.89091042     0.16800
O754        O  0.52902957  0.59247459  0.95833932    -0.60200
H755        H  0.51588365  0.56580950  0.97220114     0.43800
H756        H  0.62900137  0.60261771  0.81659658     0.43800
C757        C  0.55439452  0.57624903  0.64579352    -0.05300
C758        C  0.53536189  0.58674592  0.61562129    -0.32700
C759        C  0.55659036  0.60865519  0.58122209     0.36600
C760        C  0.59784845  0.62119583  0.57688991    -0.05600
C761        C  0.61784273  0.61385323  0.60879416    -0.32600
C762        C  0.59633213  0.59137529  0.64312827     0.36500
H763        H  0.50334315  0.57619434  0.61783957     0.16800
O764        O  0.53675783  0.61751395  0.55170193    -0.60100
H765        H  0.64952516  0.62317744  0.60590397     0.16800
O766        O  0.61581012  0.58169359  0.67227020    -0.60200
H767        H  0.63113610  0.60652844  0.68872153     0.43800
H768        H  0.51577754  0.59108423  0.54080848     0.43800
C769        C  0.22052416  0.23207351  0.50365099    -0.05300
C770        C  0.19534192  0.22205424  0.53804408    -0.32700
C771        C  0.16179468  0.18329914  0.54308917     0.36600
C772        C  0.15359639  0.15294866  0.51441420    -0.05600
C773        C  0.17906743  0.16257058  0.98036210    -0.32600
C774        C  0.21175714  0.20186705  0.97442387     0.36500
H775        H  0.20111682  0.24465775  0.56089386     0.16800
O776        O  0.13751302  0.17520917  0.57652823    -0.60100
H777        H  0.17261057  0.13993124  0.95733014     0.16800
O778        O  0.23531293  0.21005327  0.94040635    -0.60200
H779        H  0.22129924  0.21660189  0.91885550     0.43800
H780        H  0.11942116  0.18598813  0.56973626     0.43800
C781        C  0.36869110  0.38973283  0.85200695    -0.05300
C782        C  0.36374991  0.41164424  0.88328260    -0.32700
C783        C  0.34117598  0.39228753  0.91794360     0.36600
C784        C  0.32198711  0.34981553  0.92174235    -0.05600
C785        C  0.32476171  0.32749850  0.88923556    -0.32600
C786        C  0.34810940  0.34719632  0.85457721     0.36500
H787        H  0.37877675  0.44431430  0.88144605     0.16800
O788        O  0.33808520  0.41534551  0.94803950    -0.60100
H789        H  0.31057103  0.29493697  0.89155762     0.16800
O790        O  0.35283318  0.32493124  0.82474477    -0.60200
H791        H  0.32662213  0.31105682  0.81019573     0.43800
H792        H  0.36470269  0.42866689  0.96188433     0.43800
C793        C  0.32495612  0.35529951  0.57023671    -0.05300
C794        C  0.33031978  0.33429820  0.60251044    -0.32700
C795        C  0.35460690  0.35512554  0.63584912     0.36600
C796        C  0.37308234  0.39754461  0.63784284    -0.05600
C797        C  0.36604315  0.41829870  0.60649968    -0.32600
C798        C  0.34232251  0.39756987  0.57288117     0.36500
H799        H  0.31728521  0.30181852  0.60098742     0.16800
O800        O  0.36094564  0.33386345  0.66581549    -0.60100
H801        H  0.37955562  0.45084554  0.60786984     0.16800
O802        O  0.33659435  0.41898814  0.54263047    -0.60200
H803        H  0.31146181  0.41888981  0.55010996     0.43800
H804        H  0.38526695  0.33293601  0.65715637     0.43800
loop_ 
_geom_bond_atom_site_label_1 
_geom_bond_atom_site_label_2 
_geom_bond_distance 
_geom_bond_site_symmetry_2 
_ccdc_geom_bond_type 
C1            N2   1.361   1_556  A
C1          N408   1.369       .  A
C1          C367   1.491   1_556  S
N2            C3   1.355       .  A
C3          N406   1.353   1_554  A
C3          C391   1.478       .  S
N4            C5   1.357       .  A
N4          C405   1.353       .  A
C5            N6   1.366       .  A
C5          C382   1.489       .  S
N6          C403   1.369       .  A
C7            N8   1.364   1_556  A
C7          N414   1.357       .  A
C7          C733   1.471       .  S
N8            C9   1.362       .  A
C9          N412   1.357       .  A
C9          C358   1.480       .  S
N10          C11   1.355       .  A
N10         C411   1.357       .  A
C11          N12   1.356       .  A
C11         C343   1.479       .  S
N12         C409   1.357       .  A
N13          C18   1.354       .  A
N13          C17   1.354       .  A
N13          H45   1.039       .  S
N14          C21   1.350       .  A
N14          C22   1.352       .  A
N15          C20   1.352       .  A
N15          C19   1.353       .  A
N15          H46   1.040       .  S
N16          C23   1.350       .  A
N16          C24   1.349       .  A
C17          C25   1.387       .  A
C17          C33   1.418       .  A
C18          C34   1.418       .  A
C18          C26   1.387       .  A
C19          C27   1.386       .  A
C19          C36   1.415       .  A
C20          C35   1.415       .  A
C20          C28   1.387       .  A
C21          C33   1.412       .  A
C21          C29   1.387       .  A
C22          C36   1.410       .  A
C22          C30   1.385       .  A
C23          C31   1.385       .  A
C23          C34   1.409       .  A
C24          C32   1.386       .  A
C24          C35   1.410       .  A
C25          C26   1.377       .  A
C25          H37   1.082       .  S
C26          H38   1.082       .  S
C27          C28   1.376       .  A
C27          H39   1.082       .  S
C28          H40   1.082       .  S
C29          C30   1.375       .  A
C29          H41   1.082       .  S
C30          H42   1.082       .  S
C31          C32   1.376       .  A
C31          H43   1.082       .  S
C32          H44   1.082       .  S
C33         C394   1.491       .  S
C34         C355   1.491       .  S
C35         C346   1.489       .  S
C36         C379   1.494       .  S
C47          N48   1.359       .  A
C47         N454   1.366   1_554  A
C47         C295   1.486       .  S
N48          C49   1.356       .  A
C49          N50   1.354       .  A
C49         C319   1.473       .  S
N50         C453   1.355   1_554  A
C51          N52   1.361       .  A
C51         N452   1.355       .  A
C51         C310   1.480       .  S
N52         C449   1.366       .  A
C53          N58   1.369   1_556  A
C53         N456   1.359       .  A
C53         C661   1.490       .  S
N54          C55   1.353       .  A
N54         C455   1.359       .  A
C55         N458   1.353       .  A
C55         C271   1.476       .  S
N56          C57   1.357       .  A
N56         C457   1.353   1_554  A
C57          N58   1.367       .  A
C57         C283   1.487       .  S
N59          C64   1.354       .  A
N59          C63   1.352       .  A
N59          H91   1.039   1_565  S
N60          C67   1.348   1_565  A
N60          C68   1.350   1_565  A
N61          C66   1.352       .  A
N61          C65   1.354       .  A
N61          H92   1.040   1_565  S
N62          C69   1.351   1_565  A
N62          C70   1.349   1_565  A
C63          C71   1.387       .  A
C63          C79   1.415       .  A
C64          C80   1.417       .  A
C64          C72   1.387       .  A
C65          C73   1.386       .  A
C65          C82   1.414       .  A
C66          C81   1.415       .  A
C66          C74   1.388       .  A
C67          C79   1.409   1_545  A
C67          C75   1.387       .  A
C68          C82   1.407   1_545  A
C68          C76   1.385       .  A
C69          C77   1.385       .  A
C69          C80   1.411   1_545  A
C70          C78   1.387       .  A
C70          C81   1.411   1_545  A
C71          C72   1.375       .  A
C71          H83   1.082       .  S
C72          H84   1.082       .  S
C73          C74   1.375       .  A
C73          H85   1.082       .  S
C74          H86   1.082       .  S
C75          C76   1.375       .  A
C75          H87   1.082       .  S
C76          H88   1.082       .  S
C77          C78   1.376       .  A
C77          H89   1.082       .  S
C78          H90   1.082       .  S
C79         C322   1.483       .  S
C80         C286   1.495       .  S
C81         C274   1.486       .  S
C82         C307   1.490       .  S
C93          N98   1.367       .  A
C93         N496   1.359   1_554  A
C93         C628   1.487       .  S
N94          C95   1.355       .  A
N94         C495   1.359       .  A
C95         N498   1.354   1_655  A
C95         C247   1.473   1_655  S
N96          C97   1.356   1_455  A
N96         C497   1.354   1_454  A
C97          N98   1.364       .  A
C97         C235   1.484       .  S
C99         N100   1.355       .  A
C99         N506   1.367   1_554  A
C99         C187   1.485       .  S
N100        C101   1.351   1_655  A
C101        N102   1.354       .  A
C101        C214   1.474       .  S
N102        C505   1.359   1_554  A
C103        N104   1.366   1_455  A
C103        N504   1.359       .  A
C103        C199   1.487       .  S
N104        C501   1.367       .  A
N105        C110   1.355   1_455  A
N105        C109   1.351   1_455  A
N105        H137   1.039       .  S
N106        C113   1.350       .  A
N106        C114   1.352       .  A
N107        C112   1.352   1_455  A
N107        C111   1.356   1_455  A
N107        H138   1.039       .  S
N108        C115   1.353   1_655  A
N108        C116   1.350   1_655  A
C109        C117   1.388       .  A
C109        C125   1.415   1_655  A
C110        C126   1.414       .  A
C110        C118   1.385       .  A
C111        C119   1.387       .  A
C111        C128   1.419   1_655  A
C112        C127   1.417       .  A
C112        C120   1.387       .  A
C113        C125   1.412       .  A
C113        C121   1.387       .  A
C114        C128   1.412       .  A
C114        C122   1.386       .  A
C115        C123   1.385       .  A
C115        C126   1.412   1_455  A
C116        C124   1.387       .  A
C116        C127   1.413   1_455  A
C117        C118   1.374       .  A
C117        H129   1.082       .  S
C118        H130   1.082       .  S
C119        C120   1.375       .  A
C119        H131   1.082       .  S
C120        H132   1.082       .  S
C121        C122   1.376       .  A
C121        H133   1.082       .  S
C122        H134   1.082       .  S
C123        C124   1.376       .  A
C123        H135   1.082       .  S
C124        H136   1.082       .  S
C125        C211   1.485       .  S
C126        C238   1.496       .  S
C127        C250   1.487   1_655  S
C128        C202   1.497       .  S
O139       Mg141   2.146       .  S
O139       Mg549   2.160   1_554  S
O139        C174   1.233       .  S
C140        H179   1.081   1_455  S
C140        O153   1.233   1_455  S
C140        O177   1.268       .  A
Mg141       O572   2.165   1_554  S
Mg141       O181   2.271       .  S
Mg141       O152   2.297       .  S
Mg141       O587   2.287   1_554  S
O142       Mg167   2.157       .  S
O142       Mg586   2.178   1_564  S
O142        C163   1.233       .  S
O143        C174   1.267       .  A
O143       Mg167   2.293   1_655  S
C144        C223   1.479       .  S
C144        O146   1.272       .  A
C144        O158   1.272   1_655  A
O145        C173   1.269       .  A
O145       Mg147   2.301       .  S
O146       Mg178   2.277       .  S
Mg147       O153   2.166       .  S
Mg147       O541   2.160       .  S
Mg147       O161   2.290       .  S
Mg147       O551   2.294       .  S
C148        C370   1.484       .  S
C148        O186   1.271       .  A
C148        O154   1.277       .  A
O149        C156   1.274       .  A
O149       Mg549   2.294   1_554  S
H150        C163   1.081       .  S
C151        H176   1.081       .  S
C151        O165   1.234       .  S
C151        O166   1.269   1_455  A
O152        C175   1.269   1_565  A
O153       Mg569   2.179   1_655  S
O154       Mg586   2.322   1_554  S
C155        C262   1.483       .  S
C155        O168   1.276   1_565  A
C155        O160   1.275       .  A
C156        C190   1.476       .  S
C156        O183   1.273   1_655  A
Mg157       O164   2.152   1_455  S
Mg157       O567   2.176   1_554  S
Mg157       O159   2.291       .  S
Mg157       O186   2.258       .  S
Mg157       O560   2.285   1_554  S
O158       Mg559   2.285       .  S
O159        C163   1.267   1_545  A
O160       Mg569   2.304       .  S
O161        C180   1.275       .  A
O162        C182   1.272       .  A
O162       Mg580   2.283   1_564  S
O164       Mg580   2.170   1_554  S
O164        C175   1.235       .  S
O165       Mg184   2.159       .  S
O165       Mg559   2.176       .  S
O166       Mg178   2.299       .  S
Mg167       O555   2.179   1_454  S
Mg167       O183   2.263       .  S
Mg167       O562   2.304       .  S
O168       Mg184   2.283       .  S
H169        C174   1.081       .  S
O170       Mg178   2.149   1_565  S
O170       Mg543   2.165       .  S
O170        C173   1.234       .  S
H171        C173   1.081       .  S
H172        C175   1.081       .  S
O177       Mg184   2.297   1_565  S
Mg178       O566   2.170       .  S
Mg178       O564   2.283   1_545  S
C180        C334   1.493       .  S
C180        O185   1.273       .  A
O181        C182   1.271       .  A
C182        C298   1.474       .  S
Mg184       O544   2.178   1_545  S
Mg184       O556   2.322       .  S
O185       Mg543   2.287       .  S
C187        C188   1.403   1_554  A
C187        C192   1.417       .  A
C188        C189   1.403       .  A
C188        H595   1.084       .  S
C189        C190   1.413   1_556  A
C189        O194   1.372       .  S
C190        C191   1.398       .  A
C191        C192   1.397       .  A
C191        H195   1.084   1_655  S
C192        O196   1.372   1_655  S
H193        C590   1.084       .  S
O194        H600   0.992       .  S
O196        H197   0.992       .  S
H198        O596   0.992       .  S
C199        C200   1.406       .  A
C199        C204   1.411   1_455  A
C200        C201   1.399       .  A
C200        H205   1.084       .  S
C201        C202   1.408       .  A
C201        O206   1.373       .  S
C202        C203   1.408   1_455  A
C203        C204   1.408       .  A
C203        H207   1.083       .  S
C204        O208   1.371       .  S
O206        H210   0.992       .  S
O208        H209   0.992       .  S
C211        C212   1.401   1_455  A
C211        C216   1.409       .  A
C212        C213   1.398       .  A
C212        H217   1.084       .  S
C213        C214   1.411   1_655  A
C213        O218   1.372       .  S
C214        C215   1.403       .  A
C215        C216   1.397       .  A
C215        H219   1.084       .  S
C216        O220   1.372       .  S
O218        H222   0.992       .  S
O220        H221   0.992       .  S
C223        C224   1.406       .  A
C223        C228   1.405       .  A
C224        C627   1.400       .  A
C224        H631   1.084   1_655  S
C225        C626   1.400       .  A
C225        C628   1.409       .  A
C225        O230   1.371   1_655  S
C226        C495   1.487       .  S
C226        C227   1.411       .  A
C226        C627   1.409       .  A
C227        C228   1.404       .  A
C227        H231   1.083       .  S
C228        O232   1.371       .  S
H229        C626   1.084   1_455  S
O230        H234   0.992   1_455  S
O232        H233   0.992       .  S
C235        C236   1.404   1_655  A
C235        C240   1.410       .  A
C236        C237   1.400       .  A
C236        H241   1.084       .  S
C237        C238   1.408   1_455  A
C237        O242   1.373       .  S
C238        C239   1.406       .  A
C239        C240   1.408       .  A
C239        H243   1.083       .  S
C240        O244   1.371       .  S
O242        H246   0.992       .  S
O244        H245   0.992       .  S
C247        C248   1.404   1_455  A
C247        C252   1.407       .  A
C248        C249   1.401       .  A
C248        H253   1.084       .  S
C249        C250   1.408   1_655  A
C249        O254   1.372       .  S
C250        C251   1.404       .  A
C251        C252   1.398       .  A
C251        H255   1.084       .  S
C252        O256   1.372       .  S
O254        H258   0.992       .  S
O256        H257   0.992       .  S
C259        C455   1.490       .  S
C259        C264   1.417       .  A
C259        C662   1.404       .  A
C260        C261   1.406       .  A
C260        C661   1.404   1_554  A
C260        H265   1.083       .  S
C261        C664   1.414   1_554  A
C261        O266   1.372       .  S
C262        C263   1.399       .  A
C262        C663   1.414       .  A
C263        C264   1.400       .  A
C263        H267   1.084   1_565  S
C264        O268   1.371   1_565  S
O266        H270   0.992       .  S
O268        H269   0.992       .  S
C271        C272   1.404   1_565  A
C271        C276   1.409       .  A
C272        C273   1.399       .  A
C272        H277   1.084       .  S
C273        C274   1.408   1_545  A
C273        O278   1.373       .  S
C274        C275   1.403       .  A
C275        C276   1.400       .  A
C275        H279   1.084       .  S
C276        O280   1.371       .  S
O278        H282   0.992       .  S
O280        H281   0.992       .  S
C283        C284   1.406       .  A
C283        C288   1.413   1_565  A
C284        C285   1.409       .  A
C284        H289   1.083       .  S
C285        C286   1.411       .  A
C285        O290   1.371       .  S
C286        C287   1.401   1_565  A
C287        C288   1.398       .  A
C287        H291   1.084       .  S
C288        O292   1.373       .  S
O290        H294   0.992       .  S
O292        H293   0.992       .  S
C295        C300   1.417       .  A
C295        C698   1.403   1_554  A
C296        C297   1.396       .  A
C296        C697   1.403       .  A
C296        H301   1.083   1_565  S
C297        C700   1.409       .  A
C297        O302   1.372   1_565  S
C298        C299   1.401       .  A
C298        C699   1.409   1_554  A
C299        C300   1.405       .  A
C299        H303   1.084       .  S
C300        O304   1.372       .  S
O302        H306   0.992       .  S
O304        H305   0.992       .  S
C307        C308   1.400   1_565  A
C307        C312   1.410       .  A
C308        C309   1.397       .  A
C308        H313   1.084       .  S
C309        C310   1.409   1_545  A
C309        O314   1.372       .  S
C310        C311   1.405       .  A
C311        C312   1.406       .  A
C311        H315   1.083       .  S
C312        O316   1.372       .  S
O314        H318   0.992       .  S
O316        H317   0.992       .  S
C319        C320   1.404       .  A
C319        C324   1.409   1_565  A
C320        C321   1.401       .  A
C320        H325   1.084       .  S
C321        C322   1.407       .  A
C321        O326   1.372       .  S
C322        C323   1.401   1_565  A
C323        C324   1.396       .  A
C323        H327   1.084       .  S
C324        O328   1.372       .  S
O326        H330   0.992       .  S
O328        H329   0.992       .  S
C331        C409   1.471       .  S
C331        C336   1.406       .  A
C331        C734   1.397       .  A
C332        C333   1.399       .  A
C332        C733   1.397       .  A
C332        H337   1.084   1_556  S
C333        C736   1.419       .  A
C333        O338   1.372       .  S
C334        C335   1.410       .  A
C334        C735   1.419       .  A
C335        C336   1.404       .  A
C335        H339   1.083       .  S
C336        O340   1.371       .  S
O338        H342   0.992       .  S
O340        H341   0.992       .  S
C343        C344   1.405       .  A
C343        C348   1.410       .  A
C344        C345   1.402       .  A
C344        H349   1.084       .  S
C345        C346   1.408       .  A
C345        O350   1.372       .  S
C346        C347   1.402       .  A
C347        C348   1.397       .  A
C347        H351   1.084       .  S
C348        O352   1.371       .  S
O350        H354   0.992       .  S
O352        H353   0.992       .  S
C355        C356   1.401       .  A
C355        C360   1.410       .  A
C356        C357   1.398       .  A
C356        H361   1.084       .  S
C357        C358   1.409       .  A
C357        O362   1.373       .  S
C358        C359   1.405       .  A
C359        C360   1.407       .  A
C359        H363   1.083       .  S
C360        O364   1.372       .  S
O362        H366   0.992       .  S
O364        H365   0.992       .  S
C367        C368   1.409       .  A
C367        C774   1.411   1_554  A
C368        C369   1.402       .  A
C368        H373   1.083       .  S
C369        C370   1.406       .  A
C369        O374   1.372       .  S
C370        C773   1.408   1_554  A
C371        C372   1.406       .  A
C371        C772   1.408       .  A
C371        H375   1.084       .  S
C372        C769   1.411       .  A
C372        O376   1.371       .  S
O374        H378   0.992       .  S
O376        H377   0.992       .  S
C379        C380   1.401       .  A
C379        C384   1.411       .  A
C380        C381   1.396       .  A
C380        H385   1.084       .  S
C381        C382   1.413       .  A
C381        O386   1.372       .  S
C382        C383   1.407       .  A
C383        C384   1.410       .  A
C383        H387   1.083       .  S
C384        O388   1.372       .  S
O386        H390   0.992       .  S
O388        H389   0.992       .  S
C391        C392   1.404       .  A
C391        C396   1.410       .  A
C392        C393   1.400       .  A
C392        H397   1.084       .  S
C393        C394   1.410       .  A
C393        O398   1.371       .  S
C394        C395   1.404       .  A
C395        C396   1.399       .  A
C395        H399   1.084       .  S
C396        O400   1.371       .  S
O398        H402   0.992       .  S
O400        H401   0.992       .  S
C403        N404   1.361       .  A
C403        C769   1.491       .  S
N404        C405   1.355       .  A
C405        C793   1.478       .  S
N406        C407   1.357       .  A
C407        N408   1.366       .  A
C407        C784   1.489       .  S
C409        N410   1.364       .  A
N410        C411   1.362       .  A
C411        C760   1.480       .  S
N412        C413   1.355   1_554  A
C413        N414   1.356       .  A
C413        C745   1.479       .  S
N415        C420   1.354       .  A
N415        C419   1.354       .  A
N415        H447   1.039       .  S
N416        C423   1.350       .  A
N416        C424   1.352       .  A
N417        C422   1.352       .  A
N417        C421   1.353       .  A
N417        H448   1.040       .  S
N418        C425   1.350       .  A
N418        C426   1.349       .  A
C419        C427   1.387       .  A
C419        C435   1.418       .  A
C420        C436   1.418       .  A
C420        C428   1.387       .  A
C421        C429   1.386       .  A
C421        C438   1.415       .  A
C422        C437   1.415       .  A
C422        C430   1.387       .  A
C423        C435   1.412       .  A
C423        C431   1.387       .  A
C424        C438   1.410       .  A
C424        C432   1.385       .  A
C425        C433   1.385       .  A
C425        C436   1.409       .  A
C426        C434   1.386       .  A
C426        C437   1.410       .  A
C427        C428   1.377       .  A
C427        H439   1.082       .  S
C428        H440   1.082       .  S
C429        C430   1.376       .  A
C429        H441   1.082       .  S
C430        H442   1.082       .  S
C431        C432   1.375       .  A
C431        H443   1.082       .  S
C432        H444   1.082       .  S
C433        C434   1.376       .  A
C433        H445   1.082       .  S
C434        H446   1.082       .  S
C435        C796   1.491       .  S
C436        C757   1.491       .  S
C437        C748   1.489       .  S
C438        C781   1.494       .  S
C449        N450   1.359       .  A
C449        C697   1.486       .  S
N450        C451   1.356       .  A
C451        N452   1.354       .  A
C451        C721   1.473       .  S
C453        N454   1.361       .  A
C453        C712   1.480       .  S
C455        N460   1.369       .  A
N456        C457   1.353       .  A
C457        C673   1.476       .  S
N458        C459   1.357       .  A
C459        N460   1.367       .  A
C459        C685   1.487       .  S
N461        C466   1.354       .  A
N461        C465   1.352       .  A
N461        H493   1.039   1_565  S
N462        C469   1.348   1_565  A
N462        C470   1.350   1_565  A
N463        C468   1.352       .  A
N463        C467   1.354       .  A
N463        H494   1.040   1_565  S
N464        C471   1.351   1_565  A
N464        C472   1.349   1_565  A
C465        C473   1.387       .  A
C465        C481   1.415       .  A
C466        C482   1.417       .  A
C466        C474   1.387       .  A
C467        C475   1.386       .  A
C467        C484   1.414       .  A
C468        C483   1.415       .  A
C468        C476   1.388       .  A
C469        C481   1.409   1_545  A
C469        C477   1.387       .  A
C470        C484   1.407   1_545  A
C470        C478   1.385       .  A
C471        C479   1.385       .  A
C471        C482   1.411   1_545  A
C472        C480   1.387       .  A
C472        C483   1.411   1_545  A
C473        C474   1.375       .  A
C473        H485   1.082       .  S
C474        H486   1.082       .  S
C475        C476   1.375       .  A
C475        H487   1.082       .  S
C476        H488   1.082       .  S
C477        C478   1.375       .  A
C477        H489   1.082       .  S
C478        H490   1.082       .  S
C479        C480   1.376       .  A
C479        H491   1.082       .  S
C480        H492   1.082       .  S
C481        C724   1.483       .  S
C482        C688   1.495       .  S
C483        C676   1.486       .  S
C484        C709   1.490       .  S
C495        N500   1.367       .  A
N496        C497   1.355       .  A
C497        C649   1.473   1_655  S
N498        C499   1.356   1_455  A
C499        N500   1.364       .  A
C499        C637   1.484       .  S
C501        N502   1.355       .  A
C501        C589   1.485       .  S
N502        C503   1.351   1_655  A
C503        N504   1.354       .  A
C503        C616   1.474       .  S
C505        N506   1.366   1_455  A
C505        C601   1.487       .  S
N507        C512   1.355   1_455  A
N507        C511   1.351   1_455  A
N507        H539   1.039       .  S
N508        C515   1.350       .  A
N508        C516   1.352       .  A
N509        C514   1.352   1_455  A
N509        C513   1.356   1_455  A
N509        H540   1.039       .  S
N510        C517   1.353   1_655  A
N510        C518   1.350   1_655  A
C511        C519   1.388       .  A
C511        C527   1.415   1_655  A
C512        C528   1.414       .  A
C512        C520   1.385       .  A
C513        C521   1.387       .  A
C513        C530   1.419   1_655  A
C514        C529   1.417       .  A
C514        C522   1.387       .  A
C515        C527   1.412       .  A
C515        C523   1.387       .  A
C516        C530   1.412       .  A
C516        C524   1.386       .  A
C517        C525   1.385       .  A
C517        C528   1.412   1_455  A
C518        C526   1.387       .  A
C518        C529   1.413   1_455  A
C519        C520   1.374       .  A
C519        H531   1.082       .  S
C520        H532   1.082       .  S
C521        C522   1.375       .  A
C521        H533   1.082       .  S
C522        H534   1.082       .  S
C523        C524   1.376       .  A
C523        H535   1.082       .  S
C524        H536   1.082       .  S
C525        C526   1.375       .  A
C525        H537   1.082       .  S
C526        H538   1.082       .  S
C527        C613   1.485       .  S
C528        C640   1.496       .  S
C529        C652   1.487   1_655  S
C530        C604   1.497       .  S
O541       Mg543   2.146       .  S
O541        C576   1.233       .  S
C542        H581   1.081   1_455  S
C542        O555   1.233   1_455  S
C542        O579   1.268       .  A
Mg543       O583   2.271       .  S
Mg543       O554   2.297       .  S
O544       Mg569   2.157       .  S
O544        C565   1.233       .  S
O545        C576   1.267       .  A
O545       Mg569   2.293   1_655  S
C546        C625   1.479       .  S
C546        O548   1.272       .  A
C546        O560   1.272   1_655  A
O547        C575   1.269       .  A
O547       Mg549   2.301       .  S
O548       Mg580   2.277       .  S
Mg549       O555   2.166       .  S
Mg549       O563   2.290       .  S
C550        C772   1.484       .  S
C550        O588   1.271       .  A
C550        O556   1.277       .  A
O551        C558   1.274       .  A
H552        C565   1.081       .  S
C553        H578   1.081       .  S
C553        O567   1.234       .  S
C553        O568   1.269   1_455  A
O554        C577   1.269   1_565  A
C557        C664   1.483       .  S
C557        O570   1.276   1_565  A
C557        O562   1.275   1_556  A
C558        C592   1.476       .  S
C558        O585   1.273   1_655  A
Mg559       O566   2.152   1_455  S
Mg559       O561   2.291       .  S
Mg559       O588   2.258       .  S
O561        C565   1.267   1_545  A
O563        C582   1.275       .  A
O564        C584   1.272       .  A
O566        C577   1.235       .  S
O567       Mg586   2.159       .  S
O568       Mg580   2.299       .  S
Mg569       O585   2.263       .  S
O570       Mg586   2.283       .  S
H571        C576   1.081       .  S
O572       Mg580   2.149   1_565  S
O572        C575   1.234       .  S
H573        C575   1.081       .  S
H574        C577   1.081       .  S
O579       Mg586   2.297   1_565  S
C582        C736   1.493       .  S
C582        O587   1.273       .  A
O583        C584   1.271       .  A
C584        C700   1.474       .  S
C589        C590   1.403       .  A
C589        C594   1.417       .  A
C590        C591   1.403       .  A
C591        C592   1.413       .  A
C591        O596   1.372       .  S
C592        C593   1.398       .  A
C593        C594   1.397       .  A
C593        H597   1.084   1_655  S
C594        O598   1.372   1_655  S
O598        H599   0.992       .  S
C601        C602   1.406       .  A
C601        C606   1.411   1_455  A
C602        C603   1.399       .  A
C602        H607   1.084       .  S
C603        C604   1.408       .  A
C603        O608   1.373       .  S
C604        C605   1.408   1_455  A
C605        C606   1.408       .  A
C605        H609   1.083       .  S
C606        O610   1.371       .  S
O608        H612   0.992       .  S
O610        H611   0.992       .  S
C613        C614   1.401   1_455  A
C613        C618   1.409       .  A
C614        C615   1.398       .  A
C614        H619   1.084       .  S
C615        C616   1.411   1_655  A
C615        O620   1.372       .  S
C616        C617   1.403       .  A
C617        C618   1.397       .  A
C617        H621   1.084       .  S
C618        O622   1.372       .  S
O620        H624   0.992       .  S
O622        H623   0.992       .  S
C625        C626   1.406   1_556  A
C625        C630   1.405       .  A
C627        O632   1.371   1_655  S
C628        C629   1.411   1_554  A
C629        C630   1.404       .  A
C629        H633   1.083       .  S
C630        O634   1.371       .  S
O632        H636   0.992   1_455  S
O634        H635   0.992       .  S
C637        C638   1.404   1_655  A
C637        C642   1.410       .  A
C638        C639   1.400       .  A
C638        H643   1.084       .  S
C639        C640   1.408   1_455  A
C639        O644   1.373       .  S
C640        C641   1.406       .  A
C641        C642   1.408       .  A
C641        H645   1.083       .  S
C642        O646   1.371       .  S
O644        H648   0.992       .  S
O646        H647   0.992       .  S
C649        C650   1.404   1_455  A
C649        C654   1.407       .  A
C650        C651   1.401       .  A
C650        H655   1.084       .  S
C651        C652   1.408   1_655  A
C651        O656   1.372       .  S
C652        C653   1.404       .  A
C653        C654   1.398       .  A
C653        H657   1.084       .  S
C654        O658   1.372       .  S
O656        H660   0.992       .  S
O658        H659   0.992       .  S
C661        C666   1.417       .  A
C662        C663   1.406       .  A
C662        H667   1.083       .  S
C663        O668   1.372       .  S
C664        C665   1.399       .  A
C665        C666   1.400       .  A
C665        H669   1.084   1_565  S
C666        O670   1.371   1_565  S
O668        H672   0.992       .  S
O670        H671   0.992       .  S
C673        C674   1.404   1_565  A
C673        C678   1.409       .  A
C674        C675   1.399       .  A
C674        H679   1.084       .  S
C675        C676   1.408   1_545  A
C675        O680   1.373       .  S
C676        C677   1.403       .  A
C677        C678   1.400       .  A
C677        H681   1.084       .  S
C678        O682   1.371       .  S
O680        H684   0.992       .  S
O682        H683   0.992       .  S
C685        C686   1.406       .  A
C685        C690   1.413   1_565  A
C686        C687   1.409       .  A
C686        H691   1.083       .  S
C687        C688   1.411       .  A
C687        O692   1.371       .  S
C688        C689   1.401   1_565  A
C689        C690   1.398       .  A
C689        H693   1.084       .  S
C690        O694   1.373       .  S
O692        H696   0.992       .  S
O694        H695   0.992       .  S
C697        C702   1.417       .  A
C698        C699   1.396       .  A
C698        H703   1.083   1_565  S
C699        O704   1.372   1_565  S
C700        C701   1.401       .  A
C701        C702   1.405       .  A
C701        H705   1.084       .  S
C702        O706   1.372       .  S
O704        H708   0.992       .  S
O706        H707   0.992       .  S
C709        C710   1.400   1_565  A
C709        C714   1.410       .  A
C710        C711   1.397       .  A
C710        H715   1.084       .  S
C711        C712   1.409   1_545  A
C711        O716   1.372       .  S
C712        C713   1.405       .  A
C713        C714   1.406       .  A
C713        H717   1.083       .  S
C714        O718   1.372       .  S
O716        H720   0.992       .  S
O718        H719   0.992       .  S
C721        C722   1.404       .  A
C721        C726   1.409   1_565  A
C722        C723   1.401       .  A
C722        H727   1.084       .  S
C723        C724   1.407       .  A
C723        O728   1.372       .  S
C724        C725   1.401   1_565  A
C725        C726   1.396       .  A
C725        H729   1.084       .  S
C726        O730   1.372       .  S
O728        H732   0.992       .  S
O730        H731   0.992       .  S
C733        C738   1.406       .  A
C734        C735   1.399       .  A
C734        H739   1.084       .  S
C735        O740   1.372       .  S
C736        C737   1.410       .  A
C737        C738   1.404       .  A
C737        H741   1.083       .  S
C738        O742   1.371       .  S
O740        H744   0.992       .  S
O742        H743   0.992       .  S
C745        C746   1.405       .  A
C745        C750   1.410       .  A
C746        C747   1.402       .  A
C746        H751   1.084       .  S
C747        C748   1.408       .  A
C747        O752   1.372       .  S
C748        C749   1.402       .  A
C749        C750   1.397       .  A
C749        H753   1.084       .  S
C750        O754   1.371       .  S
O752        H756   0.992       .  S
O754        H755   0.992       .  S
C757        C758   1.401       .  A
C757        C762   1.410       .  A
C758        C759   1.398       .  A
C758        H763   1.084       .  S
C759        C760   1.409       .  A
C759        O764   1.373       .  S
C760        C761   1.405       .  A
C761        C762   1.407       .  A
C761        H765   1.083       .  S
C762        O766   1.372       .  S
O764        H768   0.992       .  S
O766        H767   0.992       .  S
C769        C770   1.409       .  A
C770        C771   1.402       .  A
C770        H775   1.083       .  S
C771        C772   1.406       .  A
C771        O776   1.372       .  S
C773        C774   1.406       .  A
C773        H777   1.084       .  S
C774        O778   1.371       .  S
O776        H780   0.992       .  S
O778        H779   0.992       .  S
C781        C782   1.401       .  A
C781        C786   1.411       .  A
C782        C783   1.396       .  A
C782        H787   1.084       .  S
C783        C784   1.413       .  A
C783        O788   1.372       .  S
C784        C785   1.407       .  A
C785        C786   1.410       .  A
C785        H789   1.083       .  S
C786        O790   1.372       .  S
O788        H792   0.992       .  S
O790        H791   0.992       .  S
C793        C794   1.404       .  A
C793        C798   1.410       .  A
C794        C795   1.400       .  A
C794        H799   1.084       .  S
C795        C796   1.410       .  A
C795        O800   1.371       .  S
C796        C797   1.404       .  A
C797        C798   1.399       .  A
C797        H801   1.084       .  S
C798        O802   1.371       .  S
O800        H804   0.992       .  S
O802        H803   0.992       .  S
