geometry optimzed in LAMMPS
_audit_creation_date              2020-11-30 
_audit_creation_method            'lammps2cif' 
_symmetry_space_group_name_H-M    'P1' 
_symmetry_Int_Tables_number       1 
_symmetry_cell_setting            triclinic 
loop_ 
_symmetry_equiv_pos_as_xyz 
  x,y,z 
_cell_length_a                    29.68105228 
_cell_length_b                    29.6833486824692 
_cell_length_c                    59.298390788705895 
_cell_angle_alpha                 90.10206966549934 
_cell_angle_beta                  89.86142344031383 
_cell_angle_gamma                 89.81326240370171 
loop_ 
_atom_site_label 
_atom_site_type_symbol 
_atom_site_fract_x 
_atom_site_fract_y 
_atom_site_fract_z 
_atom_site_charge 
O1          O  0.01745606  0.05492764  0.12363726    -0.73800
O2          O  0.01604155  0.92574969  0.12346614    -0.73800
O3          O  0.01412687  0.99037111  0.09131571    -0.73900
O4          O  0.01969478  0.99043896  0.15582160    -0.73900
O5          O  0.94462211  0.98988732  0.15755966    -0.73800
O6          O  0.93905900  0.99209427  0.09278622    -0.73800
O7          O  0.94093661  0.92656592  0.12468745    -0.73800
O8          O  0.94241959  0.05572850  0.12567125    -0.73900
Ni9        Ni  0.01946626  0.99031994  0.12349658     1.25400
Ni10       Ni  0.93905874  0.99114894  0.12524085     1.25400
C11         C  0.98010337  0.07659752  0.12471542     0.88400
C12         C  0.97829414  0.90489557  0.12401992     0.88300
C13         C  0.97584144  0.99134818  0.08140356     0.88400
C14         C  0.98312593  0.98987653  0.16732394     0.88500
O15         O  0.97057737  0.49093491  0.09304318    -0.73800
O16         O  0.96605191  0.49140470  0.15771131    -0.73800
O17         O  0.96767714  0.55530206  0.12536998    -0.73900
O18         O  0.96873494  0.42621462  0.12531337    -0.73900
O19         O  0.04386468  0.42622277  0.12586707    -0.73800
O20         O  0.04274827  0.55546590  0.12699906    -0.73800
O21         O  0.04118859  0.48943863  0.15880760    -0.73800
O22         O  0.04567109  0.49196008  0.09419877    -0.73900
Ni23       Ni  0.96558657  0.49084585  0.12532341     1.25400
Ni24       Ni  0.04604510  0.49079005  0.12653283     1.25400
C25         C  0.00884905  0.49198169  0.08298831     0.88400
C26         C  0.00296373  0.49056265  0.16885974     0.88300
C27         C  0.00506310  0.57663591  0.12615949     0.88400
C28         C  0.00640045  0.40494880  0.12542396     0.88500
O29         O  0.46838723  0.06274409  0.12477536    -0.73800
O30         O  0.46892472  0.93326151  0.12708673    -0.73800
O31         O  0.46951120  0.00099771  0.15814282    -0.73900
O32         O  0.46692246  0.99575009  0.09365391    -0.73900
O33         O  0.54205562  0.99675965  0.09291658    -0.73800
O34         O  0.54467720  0.99895454  0.15756449    -0.73800
O35         O  0.54403264  0.93367024  0.12573820    -0.73800
O36         O  0.54354904  0.06213901  0.12457458    -0.73900
Ni37       Ni  0.46570782  0.99808459  0.12595724     1.25400
Ni38       Ni  0.54621604  0.99785341  0.12518041     1.25400
C39         C  0.50613371  0.08364372  0.12432278     0.88400
C40         C  0.50678552  0.91224035  0.12661464     0.88300
C41         C  0.50735594  0.00105169  0.16843664     0.88400
C42         C  0.50409790  0.99606631  0.08265735     0.88500
O43         O  0.45294293  0.43416300  0.12490453    -0.73800
O44         O  0.45416071  0.56269945  0.12516938    -0.73800
O45         O  0.45158724  0.49868600  0.09260043    -0.73900
O46         O  0.45621722  0.49881098  0.15738741    -0.73900
O47         O  0.53129266  0.49532942  0.15588584    -0.73800
O48         O  0.52669248  0.49917886  0.09141932    -0.73800
O49         O  0.52931000  0.56220875  0.12454958    -0.73800
O50         O  0.52796768  0.43274961  0.12269190    -0.73900
Ni51       Ni  0.45106671  0.49857107  0.12505866     1.25400
Ni52       Ni  0.53151922  0.49736546  0.12358150     1.25400
C53         C  0.49005641  0.41223106  0.12363648     0.88400
C54         C  0.49171881  0.58366799  0.12510978     0.88300
C55         C  0.48855189  0.49925139  0.08136803     0.88400
C56         C  0.49458779  0.49688039  0.16722999     0.88500
O57         O  0.95521807  0.93830197  0.87242977    -0.73800
O58         O  0.96175470  0.06678481  0.87589535    -0.73800
O59         O  0.95788951  0.00639817  0.84184873    -0.73900
O60         O  0.95936028  0.99921712  0.90645660    -0.73900
O61         O  0.03444090  0.99600733  0.90591727    -0.73800
O62         O  0.03285321  0.00016819  0.84135699    -0.73800
O63         O  0.03679324  0.06293288  0.87481226    -0.73800
O64         O  0.03025478  0.93387577  0.87243588    -0.73900
Ni65       Ni  0.95589614  0.00278302  0.87417902     1.25400
Ni66       Ni  0.03628521  0.99816838  0.87360403     1.25400
C67         C  0.99154498  0.91490048  0.87200484     0.88400
C68         C  0.00026699  0.08605367  0.87581447     0.88300
C69         C  0.99520600  0.00396867  0.83102023     0.88400
C70         C  0.99713802  0.99668745  0.91682094     0.88500
O71         O  0.95761903  0.56719747  0.87483500    -0.73800
O72         O  0.94972614  0.43819544  0.87613188    -0.73800
O73         O  0.95336852  0.50413266  0.90779991    -0.73900
O74         O  0.95380420  0.50147534  0.84316035    -0.73900
O75         O  0.02870015  0.49480388  0.84341887    -0.73800
O76         O  0.02843696  0.50052269  0.90800372    -0.73800
O77         O  0.02473510  0.43372518  0.87694791    -0.73800
O78         O  0.03261527  0.56222100  0.87438147    -0.73900
Ni79       Ni  0.95092981  0.50294327  0.87548954     1.25400
Ni80       Ni  0.03127457  0.49772506  0.87569489     1.25400
C81         C  0.99646975  0.58589294  0.87425644     0.88400
C82         C  0.98605505  0.41476085  0.87677764     0.88300
C83         C  0.99075063  0.50275531  0.91854010     0.88400
C84         C  0.99136357  0.49706701  0.83268546     0.88500
O85         O  0.52531511  0.93460278  0.87675684    -0.73800
O86         O  0.52196053  0.06365102  0.87570926    -0.73800
O87         O  0.52015308  0.00019407  0.90849475    -0.73900
O88         O  0.52692732  0.99844929  0.84397836    -0.73900
O89         O  0.45189960  0.99485402  0.84230781    -0.73800
O90         O  0.44509699  0.99940392  0.90687772    -0.73800
O91         O  0.44698163  0.06222271  0.87350736    -0.73800
O92         O  0.45023739  0.93299037  0.87551272    -0.73900
Ni93       Ni  0.52623800  0.99930573  0.87632023     1.25400
Ni94       Ni  0.44585511  0.99741005  0.87449620     1.25400
C95         C  0.48828695  0.91253614  0.87626555     0.88400
C96         C  0.48407073  0.08420225  0.87425559     0.88300
C97         C  0.48164047  0.99996301  0.91831933     0.88400
C98         C  0.49045469  0.99568805  0.83257947     0.88500
O99         O  0.54994428  0.43273739  0.87381332    -0.73800
O100        O  0.55249640  0.56198726  0.87431020    -0.73800
O101        O  0.55112454  0.49714424  0.90635325    -0.73900
O102        O  0.55110315  0.49698036  0.84163237    -0.73900
O103        O  0.47598197  0.50073061  0.84194671    -0.73800
O104        O  0.47597350  0.49766804  0.90642292    -0.73800
O105        O  0.47737365  0.56353634  0.87496196    -0.73800
O106        O  0.47482020  0.43443937  0.87336187    -0.73900
Ni107      Ni  0.55388030  0.49719235  0.87401027     1.25400
Ni108      Ni  0.47339097  0.49912219  0.87417022     1.25400
C109        C  0.51199370  0.41233126  0.87337481     0.88400
C110        C  0.51530590  0.58403082  0.87496929     0.88300
C111        C  0.51351504  0.49737223  0.91701894     0.88400
C112        C  0.51339516  0.49887201  0.83120520     0.88500
O113        O  0.09043645  0.94578149  0.37204796    -0.73800
O114        O  0.96142397  0.94681088  0.37287886    -0.73800
O115        O  0.02453210  0.95008396  0.34015973    -0.73900
O116        O  0.02629064  0.94244154  0.40469918    -0.73900
O117        O  0.02651413  0.01745682  0.40693482    -0.73800
O118        O  0.02650454  0.02514548  0.34231000    -0.73800
O119        O  0.96177367  0.02188090  0.37469582    -0.73800
O120        O  0.09099377  0.02075582  0.37456813    -0.73900
Ni121      Ni  0.02577136  0.94363000  0.37235263     1.25400
Ni122      Ni  0.02646977  0.02400603  0.37471044     1.25400
C123        C  0.11198226  0.98303929  0.37335246     0.88400
C124        C  0.94037372  0.98446886  0.37381321     0.88300
C125        C  0.02480518  0.98880425  0.33067375     0.88400
C126        C  0.02630816  0.97869215  0.41644383     0.88500
O127        O  0.98686413  0.48833882  0.34351152    -0.73800
O128        O  0.98302539  0.49143780  0.40801198    -0.73800
O129        O  0.91994363  0.49044657  0.37491174    -0.73900
O130        O  0.04924322  0.48990384  0.37667068    -0.73900
O131        O  0.04898586  0.56498065  0.37512518    -0.73800
O132        O  0.92010518  0.56558422  0.37474438    -0.73800
O133        O  0.98419420  0.56654038  0.40741200    -0.73800
O134        O  0.98455459  0.56345773  0.34254618    -0.73900
Ni135      Ni  0.98469352  0.48736395  0.37580418     1.25400
Ni136      Ni  0.98448745  0.56782735  0.37493482     1.25400
C137        C  0.98602378  0.52528662  0.33241499     0.88400
C138        C  0.98364850  0.52932722  0.41836829     0.88300
C139        C  0.89877712  0.52819819  0.37453800     0.88400
C140        C  0.07034414  0.52748568  0.37614137     0.88500
O141        O  0.59148712  0.96964093  0.37536242    -0.73800
O142        O  0.46222493  0.96866259  0.37617965    -0.73800
O143        O  0.52685187  0.96727776  0.34358741    -0.73900
O144        O  0.52783741  0.97067212  0.40809426    -0.73900
O145        O  0.52799061  0.04578783  0.40723996    -0.73800
O146        O  0.52363735  0.04240035  0.34256297    -0.73800
O147        O  0.46145813  0.04379668  0.37594464    -0.73800
O148        O  0.59038742  0.04471625  0.37377946    -0.73900
Ni149      Ni  0.52702332  0.96638909  0.37585611     1.25400
Ni150      Ni  0.52583579  0.04686450  0.37486276     1.25400
C151        C  0.61215883  0.00740179  0.37426507     0.88400
C152        C  0.44057124  0.00613568  0.37615883     0.88300
C153        C  0.52524856  0.00418903  0.33250768     0.88400
C154        C  0.52864414  0.00872551  0.41830037     0.88500
O155        O  0.54951642  0.46990027  0.37455638    -0.73800
O156        O  0.42061507  0.46776899  0.37442786    -0.73800
O157        O  0.48595875  0.47008435  0.34198642    -0.73900
O158        O  0.48479482  0.46803678  0.40678683    -0.73900
O159        O  0.48467527  0.54316730  0.40735411    -0.73800
O160        O  0.48239397  0.54516615  0.34279650    -0.73800
O161        O  0.41916244  0.54286701  0.37568104    -0.73800
O162        O  0.54841715  0.54503864  0.37446036    -0.73900
Ni163      Ni  0.48522949  0.46626157  0.37439282     1.25400
Ni164      Ni  0.48363498  0.54672984  0.37508855     1.25400
C165        C  0.57020834  0.50766026  0.37443600     0.88400
C166        C  0.39865399  0.50494224  0.37532716     0.88300
C167        C  0.48423479  0.50809275  0.33177100     0.88400
C168        C  0.48479795  0.50534045  0.41771541     0.88500
O169        O  0.95722623  0.02911938  0.62377326    -0.73800
O170        O  0.08594185  0.02262294  0.62516448    -0.73800
O171        O  0.02343007  0.02649186  0.59225710    -0.73900
O172        O  0.01931678  0.02519279  0.65680216    -0.73900
O173        O  0.01818157  0.95002276  0.65629752    -0.73800
O174        O  0.01844909  0.95154207  0.59155935    -0.73800
O175        O  0.08267763  0.94758349  0.62399056    -0.73800
O176        O  0.95360493  0.95406999  0.62401039    -0.73900
Ni177      Ni  0.02163410  0.02849797  0.62452365     1.25400
Ni178      Ni  0.01806526  0.94809100  0.62393852     1.25400
C179        C  0.93421746  0.99273316  0.62391374     0.88400
C180        C  0.10551915  0.98410517  0.62456478     0.88300
C181        C  0.02157059  0.98935982  0.58127204     0.88400
C182        C  0.01814075  0.98737865  0.66714734     0.88500
O183        O  0.98709098  0.46215707  0.59283739    -0.73800
O184        O  0.98264333  0.45931548  0.65749778    -0.73800
O185        O  0.92027732  0.46099200  0.62394480    -0.73900
O186        O  0.04934910  0.46030015  0.62626653    -0.73900
O187        O  0.04929946  0.53537123  0.62787072    -0.73800
O188        O  0.92027889  0.53614110  0.62426264    -0.73800
O189        O  0.98041016  0.53448897  0.65821006    -0.73800
O190        O  0.98821298  0.53726387  0.59373082    -0.73900
Ni191      Ni  0.98485974  0.45800064  0.62511226     1.25400
Ni192      Ni  0.98467441  0.53848489  0.62604411     1.25400
C193        C  0.98808190  0.50017486  0.58264254     0.88400
C194        C  0.98014899  0.49653644  0.66840722     0.88300
C195        C  0.89905523  0.49865196  0.62364123     0.88400
C196        C  0.07058333  0.49769843  0.62755407     0.88500
O197        O  0.45714280  0.03280315  0.62407363    -0.73800
O198        O  0.58618993  0.02643657  0.62583703    -0.73800
O199        O  0.52355605  0.02726704  0.59278201    -0.73900
O200        O  0.52037409  0.03236638  0.65725577    -0.73900
O201        O  0.51471069  0.95748084  0.65869697    -0.73800
O202        O  0.52117075  0.95221964  0.59401402    -0.73800
O203        O  0.58229531  0.95151110  0.62783412    -0.73800
O204        O  0.45371890  0.95776699  0.62491525    -0.73900
Ni205      Ni  0.52186964  0.03239051  0.62495186     1.25400
Ni206      Ni  0.51784410  0.95206279  0.62641936     1.25400
C207        C  0.43423033  0.99626569  0.62409742     0.88400
C208        C  0.60542779  0.98781703  0.62710483     0.88300
C209        C  0.52339459  0.98900561  0.58276966     0.88400
C210        C  0.51700764  0.99585187  0.66857650     0.88500
O211        O  0.42082127  0.48536180  0.62503672    -0.73800
O212        O  0.55000166  0.48670734  0.62385430    -0.73800
O213        O  0.48688313  0.48343711  0.65666329    -0.73900
O214        O  0.48463352  0.48848729  0.59219525    -0.73900
O215        O  0.48488596  0.56357747  0.59355722    -0.73800
O216        O  0.48359014  0.55852268  0.65819015    -0.73800
O217        O  0.54903080  0.56171613  0.62613584    -0.73800
O218        O  0.41982257  0.56047967  0.62591239    -0.73900
Ni219      Ni  0.48555560  0.48333985  0.62436607     1.25400
Ni220      Ni  0.48431929  0.56377476  0.62597363     1.25400
C221        C  0.39905475  0.52272166  0.62580693     0.88400
C222        C  0.57077459  0.52440459  0.62498138     0.88300
C223        C  0.48536283  0.52015730  0.66799525     0.88400
C224        C  0.48493073  0.52674854  0.58224102     0.88500
C225        C  0.69901638  0.54161815  0.62615442     0.16600
C226        C  0.74301821  0.55841506  0.62748184    -0.32400
C227        C  0.77866056  0.52773024  0.62469985     0.21000
C228        C  0.77091803  0.48234146  0.62077910     0.03200
C229        C  0.72693397  0.46558352  0.61936817    -0.22200
C230        C  0.69130343  0.49624230  0.62219048     0.12400
S231        S  0.65115531  0.57323859  0.62910717    -0.05800
C232        C  0.62040536  0.52478614  0.62493782    -0.09300
C233        C  0.64627935  0.48637198  0.62152766    -0.25900
S234        S  0.81869834  0.45047018  0.61837745    -0.03100
C235        C  0.84949222  0.49881262  0.62271330    -0.16500
C236        C  0.82371063  0.53742873  0.62570409    -0.14500
H237        H  0.74920587  0.59379971  0.63063429     0.20800
H238        H  0.72074817  0.43015550  0.61633176     0.16900
H239        H  0.63285000  0.45297356  0.61861646     0.19400
H240        H  0.83720397  0.57073258  0.62879319     0.12700
C241        C  0.27082700  0.53916691  0.63021485     0.16600
C242        C  0.22684825  0.55608759  0.63227609    -0.32400
C243        C  0.19118562  0.52539674  0.63052793     0.21000
C244        C  0.19894239  0.47978329  0.62715327     0.03200
C245        C  0.24294996  0.46280407  0.62525406    -0.22200
C246        C  0.27861017  0.49357821  0.62676702     0.12400
S247        S  0.31853265  0.57107579  0.63121768    -0.05800
C248        C  0.34941956  0.52252936  0.62688578    -0.09300
C249        C  0.32368217  0.48378911  0.62490179    -0.25900
S250        S  0.15109912  0.44826643  0.62502955    -0.03100
C251        C  0.12023713  0.49714091  0.62843062    -0.16500
C252        C  0.14608986  0.53556145  0.63131518    -0.14500
H253        H  0.22067967  0.59171298  0.63483052     0.20800
H254        H  0.24910325  0.42725417  0.62244073     0.16900
H255        H  0.33719915  0.45029918  0.62212458     0.19400
H256        H  0.13262511  0.56922427  0.63356352     0.12700
C257        C  0.73224484  0.96280010  0.62744028     0.16600
C258        C  0.77510115  0.94289245  0.62741277    -0.32400
C259        C  0.81245308  0.97150886  0.62592802     0.21000
C260        C  0.80739916  0.01789782  0.62460169     0.03200
C261        C  0.76453933  0.03781251  0.62462171    -0.22200
C262        C  0.72718490  0.00917973  0.62605143     0.12400
S263        S  0.68275955  0.93388666  0.62885636    -0.05800
C264        C  0.65488355  0.98480458  0.62746608    -0.09300
C265        C  0.68281834  0.02204564  0.62608958    -0.25900
S266        S  0.85689250  0.04676395  0.62305840    -0.03100
C267        C  0.88474953  0.99578466  0.62414476    -0.16500
C268        C  0.85680694  0.95858067  0.62563578    -0.14500
H269        H  0.77914845  0.90668123  0.62844493     0.20800
H270        H  0.76048800  0.07401519  0.62353179     0.16900
H271        H  0.67129614  0.05662186  0.62495794     0.19400
H272        H  0.86831301  0.92397900  0.62658522     0.12700
C273        C  0.30684430  0.01819126  0.62112851     0.16600
C274        C  0.26349630  0.03677430  0.61969056    -0.32400
C275        C  0.22681009  0.00748030  0.62201670     0.21000
C276        C  0.23291355  0.96165528  0.62542235     0.03200
C277        C  0.27625767  0.94304276  0.62677168    -0.22200
C278        C  0.31293869  0.97238432  0.62458725     0.12400
S279        S  0.35573922  0.04815337  0.61928074    -0.05800
C280        C  0.38472095  0.99842627  0.62323740    -0.09300
C281        C  0.35756320  0.96081700  0.62573610    -0.25900
S282        S  0.18402851  0.93186963  0.62785436    -0.03100
C283        C  0.15503865  0.98176376  0.62443125    -0.16500
C284        C  0.18217450  0.01923535  0.62147380    -0.14500
H285        H  0.25857304  0.07254565  0.61705651     0.20800
H286        H  0.28118003  0.90731297  0.62954085     0.16900
H287        H  0.36980892  0.92686360  0.62847885     0.19400
H288        H  0.16989343  0.05326467  0.61900251     0.12700
C289        C  0.48547418  0.48701667  0.48182674     0.16600
C290        C  0.48562211  0.46949665  0.50373989    -0.32400
C291        C  0.48587558  0.50019151  0.52173292     0.21000
C292        C  0.48609703  0.54633773  0.51815184     0.03200
C293        C  0.48612054  0.56389670  0.49620659    -0.22200
C294        C  0.48574200  0.53314958  0.47818692     0.12400
S295        S  0.48482049  0.45532941  0.45776851    -0.05800
C296        C  0.48500054  0.50473357  0.44256557    -0.09300
C297        C  0.48546675  0.54352972  0.45566963    -0.25900
S298        S  0.48595072  0.57778818  0.54234203    -0.03100
C299        C  0.48545281  0.52815874  0.55740538    -0.16500
C300        C  0.48559951  0.48958457  0.54418463    -0.14500
H301        H  0.48536548  0.43348415  0.50664571     0.20800
H302        H  0.48624582  0.59990206  0.49330341     0.16900
H303        H  0.48561751  0.57752909  0.44907414     0.19400
H304        H  0.48533442  0.45548626  0.55066222     0.12700
C305        C  0.52923519  0.02810738  0.48236461     0.16600
C306        C  0.52701061  0.04580890  0.50425600    -0.32400
C307        C  0.52778048  0.01531354  0.52228715     0.21000
C308        C  0.53098449  0.96922377  0.51875830     0.03200
C309        C  0.53356969  0.95151971  0.49684947    -0.22200
C310        C  0.53237413  0.98202031  0.47879481     0.12400
S311        S  0.52725106  0.05940123  0.45824299    -0.05800
C312        C  0.53015562  0.00984594  0.44313031    -0.09300
C313        C  0.53304628  0.97134403  0.45630009    -0.25900
S314        S  0.53057407  0.93794856  0.54294517    -0.03100
C315        C  0.52595680  0.98754605  0.55795485    -0.16500
C316        C  0.52500745  0.02601443  0.54471760    -0.14500
H317        H  0.52423392  0.08176045  0.50710823     0.20800
H318        H  0.53581432  0.91553159  0.49399016     0.16900
H319        H  0.53496510  0.93728389  0.44976401     0.19400
H320        H  0.52210775  0.06007159  0.55116211     0.12700
C321        C  0.98712481  0.48524804  0.51829906     0.16600
C322        C  0.98637935  0.46872995  0.49616627    -0.32400
C323        C  0.98565233  0.50022121  0.47858028     0.21000
C324        C  0.98566106  0.54618865  0.48276135     0.03200
C325        C  0.98645023  0.56275566  0.50494279    -0.22200
C326        C  0.98721177  0.53119616  0.52256510     0.12400
S327        S  0.98780474  0.45242494  0.54189810    -0.05800
C328        C  0.98840359  0.50105700  0.55779079    -0.09300
C329        C  0.98795953  0.54049976  0.54523697    -0.25900
S330        S  0.98465916  0.57868385  0.45896078    -0.03100
C331        C  0.98413308  0.52974150  0.44324711    -0.16500
C332        C  0.98481902  0.49060723  0.45599487    -0.14500
H333        H  0.98631048  0.43286458  0.49279460     0.20800
H334        H  0.98645015  0.59860991  0.50831544     0.16900
H335        H  0.98792807  0.57415601  0.55231416     0.19400
H336        H  0.98478979  0.45679710  0.44909481     0.12700
C337        C  0.69815470  0.48924932  0.37480711     0.16600
C338        C  0.74185344  0.47138653  0.37559645    -0.32400
C339        C  0.77791386  0.50161039  0.37430537     0.21000
C340        C  0.77082344  0.54761987  0.37222494     0.03200
C341        C  0.72705358  0.56551149  0.37132797    -0.22200
C342        C  0.69094106  0.53524803  0.37274456     0.12400
S343        S  0.65014496  0.45807808  0.37637461    -0.05800
C344        C  0.61980381  0.50746658  0.37428939    -0.09300
C345        C  0.64592368  0.54597410  0.37246266    -0.25900
S346        S  0.81911964  0.57861981  0.37128561    -0.03100
C347        C  0.84918050  0.52905744  0.37379325    -0.16500
C348        C  0.82279659  0.49072207  0.37513766    -0.14500
H349        H  0.74749593  0.43548521  0.37728907     0.20800
H350        H  0.72140897  0.60142732  0.36976152     0.16900
H351        H  0.63272659  0.57988767  0.37098652     0.19400
H352        H  0.83573182  0.45674319  0.37683899     0.12700
C353        C  0.27076323  0.48632935  0.37837323     0.16600
C354        C  0.22696026  0.46895550  0.37966343    -0.32400
C355        C  0.19097225  0.49960544  0.37838863     0.21000
C356        C  0.19825193  0.54551064  0.37613675     0.03200
C357        C  0.24200126  0.56289128  0.37505975    -0.22200
C358        C  0.27794037  0.53225282  0.37615836     0.12400
S359        S  0.31898744  0.45478519  0.37892327    -0.05800
C360        C  0.34908889  0.50405468  0.37614173    -0.09300
C361        C  0.32278444  0.54263152  0.37495871    -0.25900
S362        S  0.15024484  0.57705315  0.37444741    -0.03100
C363        C  0.11990484  0.52787514  0.37667125    -0.16500
C364        C  0.14600272  0.48926526  0.37875288    -0.14500
H365        H  0.22117868  0.43311005  0.38131753     0.20800
H366        H  0.24777690  0.59870266  0.37319501     0.16900
H367        H  0.33577926  0.57650264  0.37314816     0.19400
H368        H  0.13279650  0.45542855  0.38027790     0.12700
C369        C  0.02042890  0.95493269  0.48013410     0.16600
C370        C  0.01552056  0.93618959  0.50171985    -0.32400
C371        C  0.02059940  0.96499054  0.52035204     0.21000
C372        C  0.03022472  0.01033945  0.51757873     0.03200
C373        C  0.03518422  0.02900040  0.49604736    -0.22200
C374        C  0.02990641  0.00032739  0.47745681     0.12400
S375        S  0.01535131  0.92597051  0.45533664    -0.05800
C376        C  0.02577580  0.97567210  0.44125165    -0.09300
C377        C  0.03288217  0.01244144  0.45521843    -0.25900
S378        S  0.03472489  0.03985940  0.54214916    -0.03100
C379        C  0.02348320  0.99069150  0.55645335    -0.16500
C380        C  0.01680191  0.95343015  0.54269158    -0.14500
H381        H  0.00791800  0.90080503  0.50388940     0.20800
H382        H  0.04259844  0.06443577  0.49387605     0.16900
H383        H  0.03987956  0.04628728  0.44940890     0.19400
H384        H  0.00931743  0.91982998  0.54869144     0.12700
C385        C  0.74003254  0.02593201  0.37309892     0.16600
C386        C  0.78381475  0.04347300  0.37305294    -0.32400
C387        C  0.81978483  0.01273862  0.37335470     0.21000
C388        C  0.81250112  0.96660727  0.37356590     0.03200
C389        C  0.76875259  0.94907879  0.37358919    -0.22200
C390        C  0.73280882  0.97979823  0.37340587     0.12400
S391        S  0.69189432  0.05753387  0.37306137    -0.05800
C392        C  0.66170407  0.00805677  0.37362345    -0.09300
C393        C  0.68791801  0.96932159  0.37368808    -0.25900
S394        S  0.86050234  0.93491731  0.37386470    -0.03100
C395        C  0.89082241  0.98431757  0.37378675    -0.16500
C396        C  0.86473975  0.02314568  0.37351622    -0.14500
H397        H  0.78958262  0.07947107  0.37289064     0.20800
H398        H  0.76298226  0.91306967  0.37383407     0.16900
H399        H  0.67483593  0.93529228  0.37405788     0.19400
H400        H  0.87793911  0.05711950  0.37338275     0.12700
C401        C  0.31230379  0.02399795  0.37566701     0.16600
C402        C  0.26837776  0.04147515  0.37540068    -0.32400
C403        C  0.23263272  0.01072449  0.37469714     0.21000
C404        C  0.24022345  0.96461113  0.37426195     0.03200
C405        C  0.28417270  0.94712830  0.37455651    -0.22200
C406        C  0.31994203  0.97788599  0.37527637     0.12400
S407        S  0.36014566  0.05569837  0.37637152    -0.05800
C408        C  0.39090668  0.00632684  0.37617135    -0.09300
C409        C  0.36501973  0.96751538  0.37558532    -0.25900
S410        S  0.19228702  0.93297825  0.37338010    -0.03100
C411        C  0.16163673  0.98240414  0.37361476    -0.16500
C412        C  0.18761096  0.02115032  0.37435405    -0.14500
H413        H  0.26232975  0.07746816  0.37570351     0.20800
H414        H  0.29022099  0.91113637  0.37422101     0.16900
H415        H  0.37844608  0.93355473  0.37527325     0.19400
H416        H  0.17427571  0.05514803  0.37464227     0.12700
C417        C  0.52088672  0.48581882  0.76701887     0.16600
C418        C  0.53044300  0.47309965  0.74472927    -0.32400
C419        C  0.50704934  0.49531265  0.72745583     0.21000
C420        C  0.47592947  0.52906841  0.73214796     0.03200
C421        C  0.46543258  0.54080309  0.75441033    -0.22200
C422        C  0.48841552  0.51829486  0.77165734     0.12400
S423        S  0.54686514  0.46451426  0.79041353    -0.05800
C424        C  0.51263997  0.49886117  0.80649292    -0.09300
C425        C  0.48305296  0.52534543  0.79429879    -0.25900
S426        S  0.45363691  0.55439366  0.70888420    -0.03100
C427        C  0.48564985  0.51834366  0.69267445    -0.16500
C428        C  0.51213723  0.48844036  0.70474019    -0.14500
H429        H  0.55549436  0.44739213  0.74098912     0.20800
H430        H  0.44078265  0.56689769  0.75814133     0.16900
H431        H  0.45926689  0.54903234  0.80166103     0.19400
H432        H  0.53489609  0.46392357  0.69724808     0.12700
C433        C  0.48507689  0.97398911  0.76902350     0.16600
C434        C  0.47588179  0.95784617  0.74730042    -0.32400
C435        C  0.49704943  0.97925797  0.72909910     0.21000
C436        C  0.52563948  0.01556672  0.73234937     0.03200
C437        C  0.53581020  0.03092844  0.75412275    -0.22200
C438        C  0.51509616  0.00910738  0.77235086     0.12400
S439        S  0.46110067  0.95394582  0.79317714    -0.05800
C440        C  0.49274380  0.99241311  0.80793613    -0.09300
C441        C  0.52027427  0.01930903  0.79476553    -0.25900
S442        S  0.54566135  0.03874231  0.70798765    -0.03100
C443        C  0.51626917  0.99826531  0.69332576    -0.16500
C444        C  0.49210378  0.96870885  0.70671890    -0.14500
H445        H  0.45281704  0.93011780  0.74468146     0.20800
H446        H  0.55848313  0.05898780  0.75672758     0.16900
H447        H  0.54205240  0.04553487  0.80122564     0.19400
H448        H  0.47130549  0.94158870  0.70038094     0.12700
C449        C  0.53280893  0.71236434  0.87822533     0.16600
C450        C  0.54956599  0.75645574  0.87975448    -0.32400
C451        C  0.51854629  0.79213551  0.87798962     0.21000
C452        C  0.47293334  0.78421323  0.87496909     0.03200
C453        C  0.45622461  0.74025226  0.87354244    -0.22200
C454        C  0.48716558  0.70467660  0.87521294     0.12400
S455        S  0.56471131  0.66432406  0.87947378    -0.05800
C456        C  0.51595561  0.63368720  0.87584848    -0.09300
C457        C  0.47729680  0.65971687  0.87393782    -0.25900
S458        S  0.44070663  0.83172025  0.87309224    -0.03100
C459        C  0.48909604  0.86288970  0.87637234    -0.16500
C460        C  0.52807930  0.83735311  0.87877848    -0.14500
H461        H  0.58518218  0.76267171  0.88206708     0.20800
H462        H  0.42063558  0.73404089  0.87110766     0.16900
H463        H  0.44368778  0.64644327  0.87154067     0.19400
H464        H  0.56154227  0.85111052  0.88095899     0.12700
C465        C  0.52749561  0.28384145  0.87243756     0.16600
C466        C  0.54416967  0.23965254  0.87248312    -0.32400
C467        C  0.51279161  0.20446123  0.87261072     0.21000
C468        C  0.46679120  0.21272674  0.87251696     0.03200
C469        C  0.45007826  0.25700313  0.87238268    -0.22200
C470        C  0.48151079  0.29226623  0.87242069     0.12400
S471        S  0.56012910  0.33107043  0.87270483    -0.05800
C472        C  0.51134352  0.36269806  0.87288697    -0.09300
C473        C  0.47201843  0.33752772  0.87265792    -0.25900
S474        S  0.43444057  0.16513559  0.87292390    -0.03100
C475        C  0.48349264  0.13385383  0.87341096    -0.16500
C476        C  0.52254873  0.15937066  0.87310509    -0.14500
H477        H  0.58006659  0.23298084  0.87260561     0.20800
H478        H  0.41418318  0.26367759  0.87242742     0.16900
H479        H  0.43829980  0.35157895  0.87277817     0.19400
H480        H  0.55639929  0.14564783  0.87335636     0.12700
C481        C  0.00744123  0.47924563  0.76913301     0.16600
C482        C  0.02269346  0.46710958  0.74757806    -0.32400
C483        C  0.99735825  0.48167685  0.72904251     0.21000
C484        C  0.95878408  0.50766963  0.73182349     0.03200
C485        C  0.94286029  0.51878698  0.75341580    -0.22200
C486        C  0.96798991  0.50382660  0.77197023     0.12400
S487        S  0.03459447  0.46661320  0.79365406    -0.05800
C488        C  0.99186490  0.49381065  0.80794897    -0.09300
C489        C  0.95850605  0.51174506  0.79428320    -0.25900
S490        S  0.93484489  0.52503401  0.70715525    -0.03100
C491        C  0.97656793  0.49601666  0.69304116    -0.16500
C492        C  0.00728961  0.47419416  0.70675408    -0.14500
H493        H  0.05338890  0.44769970  0.74533667     0.20800
H494        H  0.91258211  0.53885843  0.75564818     0.12100
H495        H  0.92936239  0.53029523  0.80033890     0.19400
H496        H  0.03617900  0.45524053  0.70071479     0.12700
C497        C  0.02464414  0.97237272  0.73119049     0.16600
C498        C  0.03435140  0.95869637  0.75323186    -0.32400
C499        C  0.01469858  0.98311349  0.77096212     0.21000
C500        C  0.98579489  0.01905562  0.76700049     0.03200
C501        C  0.97675772  0.03332394  0.74492422    -0.22200
C502        C  0.99720102  0.00941659  0.72717112     0.12400
S503        S  0.04449484  0.94648133  0.70741387    -0.05800
C504        C  0.01671560  0.98678756  0.69189070    -0.09300
C505        C  0.99306391  0.01824733  0.70458130    -0.25900
S506        S  0.96378111  0.04283690  0.79092992    -0.03100
C507        C  0.99504850  0.00481976  0.80629650    -0.16500
C508        C  0.02061895  0.97525692  0.79349115    -0.14500
H509        H  0.05633472  0.93012580  0.75644013     0.20800
H510        H  0.95471137  0.06182099  0.74171663     0.16900
H511        H  0.97330580  0.04564499  0.69760437     0.19400
H512        H  0.04198139  0.94894070  0.80036027     0.12700
C513        C  0.96654089  0.78815860  0.87179161     0.16600
C514        C  0.94670538  0.74543795  0.87267043    -0.32400
C515        C  0.97544060  0.70787119  0.87260895     0.21000
C516        C  0.02187744  0.71254965  0.87161401     0.03200
C517        C  0.04172814  0.75529528  0.87064027    -0.22200
C518        C  0.01297607  0.79289389  0.87081701     0.12400
S519        S  0.93751936  0.83785535  0.87224745    -0.05800
C520        C  0.98847699  0.86543214  0.87127711    -0.09300
C521        C  0.02579150  0.83721446  0.87046639    -0.25900
S522        S  0.05082790  0.66276282  0.87190823    -0.03100
C523        C  0.99980318  0.63533489  0.87338256    -0.16500
C524        C  0.96256370  0.66364385  0.87361604    -0.14500
H525        H  0.91046325  0.74165368  0.87353881     0.20800
H526        H  0.07797891  0.75908774  0.86995307     0.16900
H527        H  0.06044344  0.84851052  0.86992862     0.19400
H528        H  0.92789577  0.65247233  0.87452161     0.12700
C529        C  0.02175879  0.21347702  0.87772114     0.16600
C530        C  0.04017251  0.25684863  0.87806099    -0.32400
C531        C  0.01020298  0.29345376  0.87775725     0.21000
C532        C  0.96392453  0.28732204  0.87720962     0.03200
C533        C  0.94548578  0.24392294  0.87694917    -0.22200
C534        C  0.97548403  0.20729623  0.87719048     0.12400
S535        S  0.05240278  0.16465715  0.87759377    -0.05800
C536        C  0.00231485  0.13556217  0.87676088    -0.09300
C537        C  0.96413339  0.16265038  0.87669864    -0.25900
S538        S  0.93342957  0.33625875  0.87669268    -0.03100
C539        C  0.98363442  0.36524321  0.87721012    -0.16500
C540        C  0.02168503  0.33804743  0.87777220    -0.14500
H541        H  0.07629596  0.26186036  0.87840867     0.20800
H542        H  0.90937364  0.23891292  0.87644833     0.16900
H543        H  0.92983524  0.15032800  0.87610870     0.19400
H544        H  0.05603774  0.35026914  0.87806664     0.12700
C545        C  0.51036184  0.48184312  0.23094080     0.16600
C546        C  0.52166272  0.46702393  0.25267198    -0.32400
C547        C  0.50193535  0.48953910  0.27106765     0.21000
C548        C  0.47331115  0.52602903  0.26796566     0.03200
C549        C  0.46146198  0.54037182  0.24625351    -0.22200
C550        C  0.48012782  0.51702925  0.22787244     0.12400
S551        S  0.53069661  0.45915914  0.20642117    -0.05800
C552        C  0.49670135  0.49623862  0.19196215    -0.09300
C553        C  0.47165584  0.52502718  0.20550028    -0.25900
S554        S  0.45445885  0.55011765  0.29240494    -0.03100
C555        C  0.48406433  0.50961188  0.30698014    -0.16500
C556        C  0.50773928  0.47952309  0.29347798    -0.14500
H557        H  0.54456703  0.43902340  0.25512542     0.20800
H558        H  0.43846763  0.56830428  0.24379906     0.16900
H559        H  0.44888880  0.55070340  0.19927656     0.19400
H560        H  0.52856110  0.45229065  0.29973998     0.12700
C561        C  0.53023943  0.50000558  0.98114821     0.16600
C562        C  0.54724777  0.50159304  0.00313494    -0.32400
C563        C  0.51618874  0.50077433  0.02097134     0.21000
C564        C  0.47017008  0.49864720  0.01717114     0.03200
C565        C  0.45311213  0.49715819  0.99514261    -0.22200
C566        C  0.48423675  0.49783034  0.97727942     0.12400
S567        S  0.56247159  0.50042928  0.95727465    -0.05800
C568        C  0.51347978  0.49767179  0.94184039    -0.09300
C569        C  0.47439519  0.49649487  0.95471843    -0.25900
S570        S  0.43825752  0.49760935  0.04121850    -0.03100
C571        C  0.48753081  0.49981534  0.05651826    -0.16500
C572        C  0.52632296  0.50149861  0.04346896    -0.14500
H573        H  0.58315565  0.50322116  0.00621338     0.20800
H574        H  0.41721748  0.49539223  0.99206291     0.16900
H575        H  0.44059339  0.49482298  0.94793930     0.19400
H576        H  0.56026362  0.50290026  0.05009891     0.12700
C577        C  0.54111588  0.98822925  0.26900038     0.16600
C578        C  0.55565842  0.97588984  0.24734441    -0.32400
C579        C  0.53125120  0.99260657  0.22894200     0.21000
C580        C  0.49361312  0.01980847  0.23198000     0.03200
C581        C  0.47977478  0.03310418  0.25360983    -0.22200
C582        C  0.50460593  0.01696333  0.27199682     0.12400
S583        S  0.56494349  0.96989407  0.29349139    -0.05800
C584        C  0.52622552  0.00237657  0.30783994    -0.09300
C585        C  0.49635734  0.02586192  0.29432774    -0.25900
S586        S  0.46690201  0.03425427  0.20759216    -0.03100
C587        C  0.50758477  0.00440460  0.19312573    -0.16500
C588        C  0.53990332  0.98423642  0.20659640    -0.14500
H589        H  0.58443271  0.95388711  0.24495600     0.20800
H590        H  0.45070415  0.05471539  0.25600775     0.16900
H591        H  0.46949920  0.04734950  0.30053987     0.19400
H592        H  0.56759323  0.96383303  0.20039242     0.12700
C593        C  0.46118670  0.99743595  0.98243829     0.16600
C594        C  0.44368116  0.99549339  0.00444694    -0.32400
C595        C  0.47450533  0.99626862  0.02240660     0.21000
C596        C  0.52054169  0.99887645  0.01858201     0.03200
C597        C  0.53791678  0.00082533  0.99667613    -0.22200
C598        C  0.50726398  0.00001927  0.97879343     0.12400
S599        S  0.42995520  0.99672986  0.95821466    -0.05800
C600        C  0.47967656  0.99990081  0.94315190    -0.09300
C601        C  0.51802331  0.00142434  0.95637993    -0.25900
S602        S  0.55256537  0.99951800  0.04237945    -0.03100
C603        C  0.50356808  0.99621137  0.05784106    -0.16500
C604        C  0.46448956  0.99475138  0.04500837    -0.14500
H605        H  0.40774731  0.99343705  0.00743245     0.20800
H606        H  0.57387087  0.00285281  0.99368962     0.16900
H607        H  0.55214386  0.00328167  0.94992856     0.19400
H608        H  0.43067954  0.99283018  0.05183330     0.12700
C609        C  0.47120597  0.71108895  0.12756844     0.16600
C610        C  0.45251537  0.75442442  0.12867824    -0.32400
C611        C  0.48211174  0.79103127  0.12779098     0.21000
C612        C  0.52831193  0.78474552  0.12598161     0.03200
C613        C  0.54704091  0.74136757  0.12493516    -0.22200
C614        C  0.51739658  0.70473557  0.12573806     0.12400
S615        S  0.44083426  0.66254049  0.12809784    -0.05800
C616        C  0.49082721  0.63318393  0.12581168    -0.09300
C617        C  0.52893867  0.65997473  0.12475204    -0.25900
S618        S  0.55844283  0.83347432  0.12495853    -0.03100
C619        C  0.50826081  0.86269310  0.12689559    -0.16500
C620        C  0.47035484  0.83573336  0.12833245    -0.14500
H621        H  0.41644160  0.75938395  0.13004797     0.20800
H622        H  0.58309362  0.73640943  0.12344583     0.16900
H623        H  0.56311901  0.64743058  0.12325462     0.19400
H624        H  0.43608091  0.84813536  0.12957611     0.12700
C625        C  0.52640796  0.21098207  0.12140195     0.16600
C626        C  0.54480397  0.25430510  0.12004509    -0.32400
C627        C  0.51510853  0.29097812  0.12166877     0.21000
C628        C  0.46912031  0.28478854  0.12440628     0.03200
C629        C  0.45070148  0.24145477  0.12566514    -0.22200
C630        C  0.48041558  0.20477939  0.12412574     0.12400
S631        S  0.55687404  0.16226243  0.12023506    -0.05800
C632        C  0.50714254  0.13313170  0.12344615    -0.09300
C633        C  0.46909467  0.16009683  0.12524324    -0.25900
S634        S  0.43882151  0.33356043  0.12623374    -0.03100
C635        C  0.48864145  0.36268981  0.12336839    -0.16500
C636        C  0.52655087  0.33566309  0.12105025    -0.14500
H637        H  0.58071148  0.25920723  0.11797298     0.20800
H638        H  0.41482793  0.23655327  0.12788209     0.16900
H639        H  0.43508153  0.14771161  0.12743825     0.19400
H640        H  0.56063496  0.34802154  0.11910773     0.12700
C641        C  0.97410793  0.53179009  0.26807078     0.16600
C642        C  0.96170370  0.54152251  0.24578825    -0.32400
C643        C  0.98161240  0.51585381  0.22851314     0.21000
C644        C  0.01311831  0.48254415  0.23317151     0.03200
C645        C  0.02462652  0.47202314  0.25547550    -0.22200
C646        C  0.00412652  0.49716405  0.27276192     0.12400
S647        S  0.95481688  0.55987492  0.29139004    -0.05800
C648        C  0.98636669  0.52361541  0.30763397    -0.09300
C649        C  0.01074643  0.49186280  0.29548292    -0.25900
S650        S  0.03593102  0.45755701  0.20978350    -0.03100
C651        C  0.00163592  0.49134660  0.19361427    -0.16500
C652        C  0.97426689  0.52047997  0.20579897    -0.14500
H653        H  0.93785876  0.56814851  0.24206925     0.20800
H654        H  0.04878121  0.44567540  0.25918466     0.16900
H655        H  0.03250171  0.46658671  0.30289735     0.19400
H656        H  0.95133197  0.54469590  0.19838555     0.12700
C657        C  0.02982221  0.49703040  0.01903797     0.16600
C658        C  0.04797699  0.49839519  0.99718140    -0.32400
C659        C  0.01771537  0.50078497  0.97905923     0.21000
C660        C  0.97150960  0.50202079  0.98255552     0.03200
C661        C  0.95341613  0.50081277  0.00437465    -0.22200
C662        C  0.98359770  0.49814966  0.02245842     0.12400
S663        S  0.06059849  0.49371004  0.04329812    -0.05800
C664        C  0.01058855  0.49368655  0.05817282    -0.09300
C665        C  0.97236892  0.49620401  0.04484763    -0.25900
S666        S  0.94037478  0.50421099  0.95844231    -0.03100
C667        C  0.99006323  0.50321452  0.94337806    -0.16500
C668        C  0.02860883  0.50153718  0.95656541    -0.14500
H669        H  0.08403763  0.49734743  0.99441975     0.20800
H670        H  0.91733300  0.50158954  0.00713209     0.16900
H671        H  0.93812506  0.49673744  0.05120724     0.19400
H672        H  0.06270698  0.50041310  0.95004972     0.12700
C673        C  0.03361541  0.00072075  0.26647235     0.16600
C674        C  0.04708246  0.00809057  0.24409781    -0.32400
C675        C  0.01645602  0.99728028  0.22693419     0.21000
C676        C  0.97401463  0.98041929  0.23182093     0.03200
C677        C  0.96080289  0.97240020  0.25416365    -0.22200
C678        C  0.99163956  0.98262205  0.27130272     0.12400
S679        S  0.06552783  0.01227340  0.28975433    -0.05800
C680        C  0.02230953  0.99144176  0.30602243    -0.09300
C681        C  0.98520664  0.97675973  0.29400761    -0.25900
S682        S  0.94124479  0.97085832  0.20865086    -0.03100
C683        C  0.98546622  0.98892237  0.19214541    -0.16500
C684        C  0.02336878  0.00178243  0.20417194    -0.14500
H685        H  0.08011288  0.02176957  0.24021723     0.20800
H686        H  0.92776876  0.95875217  0.25804101     0.16900
H687        H  0.95493307  0.96290420  0.30155783     0.19400
H688        H  0.05427551  0.01420195  0.19663999     0.12700
C689        C  0.01553121  0.99083755  0.98088460     0.16600
C690        C  0.03299056  0.98842988  0.00278608    -0.32400
C691        C  0.00235906  0.99021593  0.02081977     0.21000
C692        C  0.95635204  0.99405521  0.01727796     0.03200
C693        C  0.93887211  0.99636338  0.99535511    -0.22200
C694        C  0.96953077  0.99471255  0.97730699     0.12400
S695        S  0.04710387  0.98978190  0.95676568    -0.05800
C696        C  0.99779096  0.99465447  0.94165125    -0.09300
C697        C  0.95914691  0.99685602  0.95482006    -0.25900
S698        S  0.92495651  0.99591405  0.04149038    -0.03100
C699        C  0.97441507  0.99164205  0.05654145    -0.16500
C700        C  0.01289578  0.98881460  0.04327880    -0.14500
H701        H  0.06889782  0.98550292  0.00565312     0.20800
H702        H  0.90298378  0.99949170  0.99248926     0.16900
H703        H  0.92524665  0.00009104  0.94829283     0.19400
H704        H  0.04689186  0.98599050  0.04973591     0.12700
C705        C  0.96084543  0.77662041  0.12530288     0.16600
C706        C  0.94397875  0.73258305  0.12642574    -0.32400
C707        C  0.97522176  0.69697958  0.12588208     0.21000
C708        C  0.02115031  0.70484178  0.12430053     0.03200
C709        C  0.03795736  0.74880655  0.12312561    -0.22200
C710        C  0.00678591  0.78436337  0.12368446     0.12400
S711        S  0.92875472  0.82452035  0.12591249    -0.05800
C712        C  0.97783506  0.85525692  0.12403626    -0.09300
C713        C  0.01671998  0.82935611  0.12292658    -0.25900
S714        S  0.05356899  0.65724417  0.12395795    -0.03100
C715        C  0.00476983  0.62624906  0.12589445    -0.16500
C716        C  0.96558974  0.65187213  0.12676781    -0.14500
H717        H  0.90814571  0.72635224  0.12771170     0.20800
H718        H  0.07380281  0.75504029  0.12188720     0.16900
H719        H  0.05055069  0.84274325  0.12175437     0.19400
H720        H  0.93186905  0.63822949  0.12797386     0.12700
C721        C  0.96357314  0.20502646  0.12466157     0.16600
C722        C  0.94659317  0.24912731  0.12460139    -0.32400
C723        C  0.97773108  0.28454837  0.12464412     0.21000
C724        C  0.02377959  0.27651113  0.12471186     0.03200
C725        C  0.04079025  0.23236596  0.12468232    -0.22200
C726        C  0.00961195  0.19691209  0.12466394     0.12400
S727        S  0.93129538  0.15753221  0.12479688    -0.05800
C728        C  0.98030759  0.12625423  0.12478196    -0.09300
C729        C  0.01943982  0.15172788  0.12470287    -0.25900
S730        S  0.05587893  0.32418815  0.12498703    -0.03100
C731        C  0.00670161  0.35528965  0.12503942    -0.16500
C732        C  0.96773163  0.32965140  0.12478390    -0.14500
H733        H  0.91064716  0.25555889  0.12460029     0.20800
H734        H  0.07673187  0.22593577  0.12474449     0.16900
H735        H  0.05326782  0.13793550  0.12469669     0.19400
H736        H  0.93383680  0.34328288  0.12480312     0.12700
loop_ 
_geom_bond_atom_site_label_1 
_geom_bond_atom_site_label_2 
_geom_bond_distance 
_geom_bond_site_symmetry_2 
_ccdc_geom_bond_type 
O1           Ni9   1.919   1_545  S
O1           C11   1.281   1_455  A
O2           Ni9   1.920       .  S
O2           C12   1.282   1_455  A
O3           Ni9   1.915       .  S
O3           C13   1.281   1_455  A
O4           Ni9   1.917       .  S
O4           C14   1.281   1_455  A
O5          Ni10   1.924       .  S
O5           C14   1.282       .  A
O6          Ni10   1.925       .  S
O6           C13   1.282       .  A
O7          Ni10   1.918       .  S
O7           C12   1.281       .  A
O8          Ni10   1.920   1_545  S
O8           C11   1.282       .  A
Ni9         Ni10   2.389   1_455  S
C11         C728   1.474       .  S
C12         C712   1.474       .  S
C13         C699   1.475       .  S
C14         C683   1.474       .  S
O15         Ni23   1.920       .  S
O15          C25   1.282   1_655  A
O16         Ni23   1.921       .  S
O16          C26   1.281   1_655  A
O17         Ni23   1.914       .  S
O17          C27   1.280   1_655  A
O18         Ni23   1.920       .  S
O18          C28   1.282   1_655  A
O19         Ni24   1.918       .  S
O19          C28   1.281       .  A
O20         Ni24   1.922       .  S
O20          C27   1.282       .  A
O21         Ni24   1.919       .  S
O21          C26   1.281       .  A
O22         Ni24   1.918       .  S
O22          C25   1.281       .  A
Ni23        Ni24   2.389   1_655  S
C25         C664   1.473       .  S
C26         C651   1.468       .  S
C27         C715   1.473       .  S
C28         C731   1.474       .  S
O29         Ni37   1.923   1_545  S
O29          C39   1.283       .  A
O30         Ni37   1.928       .  S
O30          C40   1.284       .  A
O31         Ni37   1.914   1_545  S
O31          C41   1.280       .  A
O32         Ni37   1.917       .  S
O32          C42   1.280       .  A
O33         Ni38   1.918       .  S
O33          C42   1.282       .  A
O34         Ni38   1.921       .  S
O34          C41   1.282   1_565  A
O35         Ni38   1.907       .  S
O35          C40   1.278       .  A
O36         Ni38   1.910   1_545  S
O36          C39   1.279       .  A
Ni37        Ni38   2.390       .  S
C39         C632   1.470       .  S
C40         C619   1.471       .  S
C41         C587   1.467       .  S
C42         C603   1.472       .  S
O43         Ni51   1.912       .  S
O43          C53   1.280       .  A
O44         Ni51   1.906       .  S
O44          C54   1.279       .  A
O45         Ni51   1.925       .  S
O45          C55   1.282       .  A
O46         Ni51   1.923       .  S
O46          C56   1.282       .  A
O47         Ni52   1.917       .  S
O47          C56   1.280       .  A
O48         Ni52   1.914       .  S
O48          C55   1.281       .  A
O49         Ni52   1.926       .  S
O49          C54   1.283       .  A
O50         Ni52   1.922       .  S
O50          C53   1.282       .  A
Ni51        Ni52   2.389       .  S
C53         C635   1.471       .  S
C54         C616   1.470       .  S
C55         C571   1.474       .  S
C56         C552   1.468       .  S
O57         Ni65   1.917   1_565  S
O57          C67   1.281       .  A
O58         Ni65   1.911       .  S
O58          C68   1.280   1_655  A
O59         Ni65   1.921       .  S
O59          C69   1.281       .  A
O60         Ni65   1.920   1_565  S
O60          C70   1.282       .  A
O61         Ni66   1.918       .  S
O61          C70   1.281   1_455  A
O62         Ni66   1.916   1_545  S
O62          C69   1.281   1_455  A
O63         Ni66   1.924   1_545  S
O63          C68   1.282       .  A
O64         Ni66   1.919       .  S
O64          C67   1.282   1_455  A
Ni65        Ni66   2.390   1_645  S
C67         C520   1.472       .  S
C68         C536   1.472       .  S
C69         C507   1.466       .  S
C70         C696   1.474       .  S
O71         Ni79   1.919       .  S
O71          C81   1.282       .  A
O72         Ni79   1.923       .  S
O72          C82   1.282       .  A
O73         Ni79   1.918       .  S
O73          C83   1.281       .  A
O74         Ni79   1.919       .  S
O74          C84   1.281       .  A
O75         Ni80   1.917       .  S
O75          C84   1.281   1_455  A
O76         Ni80   1.919       .  S
O76          C83   1.281   1_455  A
O77         Ni80   1.912       .  S
O77          C82   1.280   1_455  A
O78         Ni80   1.917       .  S
O78          C81   1.281   1_455  A
Ni79        Ni80   2.389   1_655  S
C81         C523   1.472       .  S
C82         C539   1.472       .  S
C83         C667   1.473       .  S
C84         C488   1.470       .  S
O85         Ni93   1.921       .  S
O85          C95   1.282       .  A
O86         Ni93   1.914   1_545  S
O86          C96   1.281       .  A
O87         Ni93   1.916   1_545  S
O87          C97   1.282   1_545  A
O88         Ni93   1.918       .  S
O88          C98   1.280       .  A
O89         Ni94   1.918       .  S
O89          C98   1.281       .  A
O90         Ni94   1.921       .  S
O90          C97   1.281       .  A
O91         Ni94   1.925   1_545  S
O91          C96   1.282       .  A
O92         Ni94   1.917       .  S
O92          C95   1.281       .  A
Ni93        Ni94   2.389       .  S
C95         C459   1.474       .  S
C96         C475   1.475       .  S
C97         C600   1.474       .  S
C98         C440   1.466       .  S
O99        Ni107   1.917       .  S
O99         C109   1.281       .  A
O100       Ni107   1.924       .  S
O100        C110   1.282       .  A
O101       Ni107   1.919       .  S
O101        C111   1.282       .  A
O102       Ni107   1.922       .  S
O102        C112   1.281       .  A
O103       Ni108   1.913       .  S
O103        C112   1.280       .  A
O104       Ni108   1.915       .  S
O104        C111   1.281       .  A
O105       Ni108   1.917       .  S
O105        C110   1.281       .  A
O106       Ni108   1.921       .  S
O106        C109   1.282       .  A
Ni107      Ni108   2.390       .  S
C109        C472   1.474       .  S
C110        C456   1.475       .  S
C111        C568   1.472       .  S
C112        C424   1.466       .  S
O113       Ni121   1.921       .  S
O113        C123   1.282       .  A
O114       Ni121   1.912   1_655  S
O114        C124   1.280       .  A
O115       Ni121   1.919       .  S
O115        C125   1.281       .  A
O116       Ni121   1.919       .  S
O116        C126   1.281       .  A
O117       Ni122   1.921       .  S
O117        C126   1.282   1_545  A
O118       Ni122   1.922       .  S
O118        C125   1.281   1_545  A
O119       Ni122   1.921   1_655  S
O119        C124   1.282   1_545  A
O120       Ni122   1.917       .  S
O120        C123   1.281   1_545  A
Ni121      Ni122   2.390   1_565  S
C123        C411   1.474       .  S
C124        C395   1.471       .  S
C125        C680   1.466       .  S
C126        C376   1.474       .  S
O127       Ni135   1.916       .  S
O127        C137   1.280       .  A
O128       Ni135   1.914       .  S
O128        C138   1.281       .  A
O129       Ni135   1.925       .  S
O129        C139   1.283       .  A
O130       Ni135   1.918   1_455  S
O130        C140   1.282       .  A
O131       Ni136   1.916   1_455  S
O131        C140   1.281       .  A
O132       Ni136   1.912       .  S
O132        C139   1.279       .  A
O133       Ni136   1.926       .  S
O133        C138   1.283       .  A
O134       Ni136   1.925       .  S
O134        C137   1.282       .  A
Ni135      Ni136   2.389       .  S
C137        C648   1.470       .  S
C138        C331   1.475       .  S
C139        C347   1.473       .  S
C140        C363   1.472       .  S
O141       Ni149   1.916       .  S
O141        C151   1.281   1_565  A
O142       Ni149   1.924       .  S
O142        C152   1.283   1_565  A
O143       Ni149   1.914       .  S
O143        C153   1.279   1_565  A
O144       Ni149   1.916       .  S
O144        C154   1.281   1_565  A
O145       Ni150   1.921       .  S
O145        C154   1.282       .  A
O146       Ni150   1.921       .  S
O146        C153   1.281       .  A
O147       Ni150   1.914       .  S
O147        C152   1.280       .  A
O148       Ni150   1.918       .  S
O148        C151   1.281       .  A
Ni149      Ni150   2.390   1_565  S
C151        C392   1.471       .  S
C152        C408   1.474       .  S
C153        C584   1.464       .  S
C154        C312   1.473       .  S
O155       Ni163   1.912       .  S
O155        C165   1.280       .  A
O156       Ni163   1.918       .  S
O156        C166   1.281       .  A
O157       Ni163   1.925       .  S
O157        C167   1.282       .  A
O158       Ni163   1.922       .  S
O158        C168   1.282       .  A
O159       Ni164   1.917       .  S
O159        C168   1.281       .  A
O160       Ni164   1.916       .  S
O160        C167   1.280       .  A
O161       Ni164   1.918       .  S
O161        C166   1.282       .  A
O162       Ni164   1.924       .  S
O162        C165   1.282       .  A
Ni163      Ni164   2.389       .  S
C165        C344   1.472       .  S
C166        C360   1.472       .  S
C167        C555   1.471       .  S
C168        C296   1.474       .  S
O169       Ni177   1.912   1_655  S
O169        C179   1.280   1_545  A
O170       Ni177   1.917       .  S
O170        C180   1.281   1_545  A
O171       Ni177   1.915       .  S
O171        C181   1.281   1_545  A
O172       Ni177   1.918       .  S
O172        C182   1.281   1_545  A
O173       Ni178   1.920       .  S
O173        C182   1.281       .  A
O174       Ni178   1.923       .  S
O174        C181   1.282       .  A
O175       Ni178   1.918       .  S
O175        C180   1.281       .  A
O176       Ni178   1.921   1_655  S
O176        C179   1.282       .  A
Ni177      Ni178   2.390   1_545  S
C179        C267   1.471       .  S
C180        C283   1.471       .  S
C181        C379   1.473       .  S
C182        C504   1.468       .  S
O183       Ni191   1.919       .  S
O183        C193   1.282       .  A
O184       Ni191   1.922       .  S
O184        C194   1.281       .  A
O185       Ni191   1.920       .  S
O185        C195   1.282       .  A
O186       Ni191   1.917   1_455  S
O186        C196   1.281       .  A
O187       Ni192   1.923   1_455  S
O187        C196   1.283       .  A
O188       Ni192   1.916       .  S
O188        C195   1.281       .  A
O189       Ni192   1.915       .  S
O189        C194   1.280       .  A
O190       Ni192   1.919       .  S
O190        C193   1.281       .  A
Ni191      Ni192   2.390       .  S
C193        C328   1.474       .  S
C194        C491   1.464       .  S
C195        C235   1.472       .  S
C196        C251   1.475       .  S
O197       Ni205   1.922       .  S
O197        C207   1.282   1_545  A
O198       Ni205   1.918       .  S
O198        C208   1.281   1_545  A
O199       Ni205   1.914       .  S
O199        C209   1.281   1_545  A
O200       Ni205   1.916       .  S
O200        C210   1.280   1_545  A
O201       Ni206   1.922       .  S
O201        C210   1.282       .  A
O202       Ni206   1.924       .  S
O202        C209   1.282       .  A
O203       Ni206   1.915       .  S
O203        C208   1.280       .  A
O204       Ni206   1.913       .  S
O204        C207   1.280       .  A
Ni205      Ni206   2.390   1_545  S
C207        C280   1.472       .  S
C208        C264   1.471       .  S
C209        C315   1.474       .  S
C210        C443   1.469       .  S
O211       Ni219   1.922       .  S
O211        C221   1.282       .  A
O212       Ni219   1.916       .  S
O212        C222   1.281       .  A
O213       Ni219   1.916       .  S
O213        C223   1.280       .  A
O214       Ni219   1.914       .  S
O214        C224   1.281       .  A
O215       Ni220   1.922       .  S
O215        C224   1.282       .  A
O216       Ni220   1.917       .  S
O216        C223   1.281       .  A
O217       Ni220   1.922       .  S
O217        C222   1.282       .  A
O218       Ni220   1.917       .  S
O218        C221   1.281       .  A
Ni219      Ni220   2.389       .  S
C221        C248   1.474       .  S
C222        C232   1.473       .  S
C223        C427   1.465       .  S
C224        C299   1.473       .  S
C225        S231   1.709       .  A
C225        C230   1.387       .  A
C225        C226   1.402       .  A
C226        C227   1.403       .  A
C226        H237   1.083       .  S
C227        C236   1.370       .  A
C227        C228   1.387       .  A
C228        S234   1.708       .  A
C228        C229   1.401       .  A
C229        C230   1.402       .  A
C229        H238   1.083       .  S
C230        C233   1.370       .  A
S231        C232   1.724       .  A
C232        C233   1.387       .  A
C233        H239   1.083       .  S
S234        C235   1.723       .  A
C235        C236   1.387       .  A
C236        H240   1.083       .  S
C241        S247   1.707       .  A
C241        C246   1.387       .  A
C241        C242   1.402       .  A
C242        C243   1.403       .  A
C242        H253   1.083       .  S
C243        C252   1.372       .  A
C243        C244   1.387       .  A
C244        S250   1.708       .  A
C244        C245   1.403       .  A
C245        C246   1.403       .  A
C245        H254   1.083       .  S
C246        C249   1.372       .  A
S247        C248   1.724       .  A
C248        C249   1.388       .  A
C249        H255   1.083       .  S
S250        C251   1.724       .  A
C251        C252   1.387       .  A
C252        H256   1.083       .  S
C257        S263   1.706       .  A
C257        C262   1.387   1_565  A
C257        C258   1.401       .  A
C258        C259   1.402       .  A
C258        H269   1.083       .  S
C259        C268   1.370       .  A
C259        C260   1.387   1_565  A
C260        S266   1.705       .  A
C260        C261   1.401       .  A
C261        C262   1.402       .  A
C261        H270   1.083       .  S
C262        C265   1.370       .  A
S263        C264   1.723       .  A
C264        C265   1.386   1_565  A
C265        H271   1.083       .  S
S266        C267   1.723   1_545  A
C267        C268   1.386       .  A
C268        H272   1.083       .  S
C273        S279   1.708       .  A
C273        C278   1.387   1_545  A
C273        C274   1.401       .  A
C274        C275   1.402       .  A
C274        H285   1.083       .  S
C275        C284   1.369       .  A
C275        C276   1.387   1_545  A
C276        S282   1.708       .  A
C276        C277   1.401       .  A
C277        C278   1.402       .  A
C277        H286   1.083       .  S
C278        C281   1.369       .  A
S279        C280   1.723   1_545  A
C280        C281   1.387       .  A
C281        H287   1.083       .  S
S282        C283   1.723       .  A
C283        C284   1.387   1_565  A
C284        H288   1.083       .  S
C289        S295   1.708       .  A
C289        C294   1.387       .  A
C289        C290   1.400       .  A
C290        C291   1.402       .  A
C290        H301   1.083       .  S
C291        C300   1.369       .  A
C291        C292   1.387       .  A
C292        S298   1.710       .  A
C292        C293   1.403       .  A
C293        C294   1.404       .  A
C293        H302   1.083       .  S
C294        C297   1.371       .  A
S295        C296   1.723       .  A
C296        C297   1.388       .  A
C297        H303   1.083       .  S
S298        C299   1.724       .  A
C299        C300   1.387       .  A
C300        H304   1.083       .  S
C305        S311   1.708       .  A
C305        C310   1.387   1_545  A
C305        C306   1.401       .  A
C306        C307   1.402       .  A
C306        H317   1.083       .  S
C307        C316   1.369       .  A
C307        C308   1.387   1_545  A
C308        S314   1.710       .  A
C308        C309   1.402       .  A
C309        C310   1.404       .  A
C309        H318   1.083       .  S
C310        C313   1.371       .  A
S311        C312   1.723       .  A
C312        C313   1.388   1_545  A
C313        H319   1.083       .  S
S314        C315   1.724       .  A
C315        C316   1.387   1_565  A
C316        H320   1.083       .  S
C321        S327   1.707       .  A
C321        C326   1.387       .  A
C321        C322   1.400       .  A
C322        C323   1.402       .  A
C322        H333   1.083       .  S
C323        C332   1.369       .  A
C323        C324   1.386       .  A
C324        S330   1.711       .  A
C324        C325   1.404       .  A
C325        C326   1.405       .  A
C325        H334   1.083       .  S
C326        C329   1.372       .  A
S327        C328   1.723       .  A
C328        C329   1.389       .  A
C329        H335   1.083       .  S
S330        C331   1.725       .  A
C331        C332   1.387       .  A
C332        H336   1.083       .  S
C337        S343   1.704       .  A
C337        C342   1.387       .  A
C337        C338   1.401       .  A
C338        C339   1.401       .  A
C338        H349   1.083       .  S
C339        C348   1.371       .  A
C339        C340   1.387       .  A
C340        S346   1.707       .  A
C340        C341   1.403       .  A
C341        C342   1.403       .  A
C341        H350   1.083       .  S
C342        C345   1.373       .  A
S343        C344   1.723       .  A
C344        C345   1.387       .  A
C345        H351   1.083       .  S
S346        C347   1.725       .  A
C347        C348   1.386       .  A
C348        H352   1.083       .  S
C353        S359   1.708       .  A
C353        C358   1.387       .  A
C353        C354   1.402       .  A
C354        C355   1.403       .  A
C354        H365   1.083       .  S
C355        C364   1.371       .  A
C355        C356   1.387       .  A
C356        S362   1.706       .  A
C356        C357   1.400       .  A
C357        C358   1.401       .  A
C357        H366   1.083       .  S
C358        C361   1.369       .  A
S359        C360   1.724       .  A
C360        C361   1.386       .  A
C361        H367   1.083       .  S
S362        C363   1.723       .  A
C363        C364   1.387       .  A
C364        H368   1.083       .  S
C369        S375   1.709       .  A
C369        C374   1.387   1_565  A
C369        C370   1.404       .  A
C370        C371   1.404       .  A
C370        H381   1.083       .  S
C371        C380   1.373       .  A
C371        C372   1.387   1_565  A
C372        S378   1.705       .  A
C372        C373   1.400       .  A
C373        C374   1.401       .  A
C373        H382   1.083       .  S
C374        C377   1.370       .  A
S375        C376   1.725       .  A
C376        C377   1.386   1_565  A
C377        H383   1.083       .  S
S378        C379   1.723   1_545  A
C379        C380   1.388       .  A
C380        H384   1.083       .  S
C385        S391   1.707       .  A
C385        C390   1.387   1_545  A
C385        C386   1.402       .  A
C386        C387   1.402       .  A
C386        H397   1.083       .  S
C387        C396   1.371       .  A
C387        C388   1.387   1_545  A
C388        S394   1.705       .  A
C388        C389   1.400       .  A
C389        C390   1.401       .  A
C389        H398   1.083       .  S
C390        C393   1.369       .  A
S391        C392   1.723       .  A
C392        C393   1.386   1_545  A
C393        H399   1.084       .  S
S394        C395   1.723       .  A
C395        C396   1.386   1_565  A
C396        H400   1.083       .  S
C401        S407   1.707       .  A
C401        C406   1.387   1_545  A
C401        C402   1.402       .  A
C402        C403   1.402       .  A
C402        H413   1.083       .  S
C403        C412   1.371       .  A
C403        C404   1.387   1_545  A
C404        S410   1.708       .  A
C404        C405   1.402       .  A
C405        C406   1.403       .  A
C405        H414   1.083       .  S
C406        C409   1.372       .  A
S407        C408   1.724       .  A
C408        C409   1.387   1_545  A
C409        H415   1.083       .  S
S410        C411   1.724       .  A
C411        C412   1.387   1_565  A
C412        H416   1.083       .  S
C417        S423   1.710       .  A
C417        C422   1.388       .  A
C417        C418   1.402       .  A
C418        C419   1.403       .  A
C418        H429   1.086       .  S
C419        C428   1.370       .  A
C419        C420   1.388       .  A
C420        S426   1.706       .  A
C420        C421   1.399       .  A
C421        C422   1.400       .  A
C421        H430   1.086       .  S
C422        C425   1.367       .  A
S423        C424   1.722       .  A
C424        C425   1.383       .  A
C425        H431   1.085       .  S
S426        C427   1.720       .  A
C427        C428   1.385       .  A
C428        H432   1.085       .  S
C433        S439   1.707       .  A
C433        C438   1.388   1_565  A
C433        C434   1.401       .  A
C434        C435   1.402       .  A
C434        H445   1.083       .  S
C435        C444   1.371       .  A
C435        C436   1.387   1_565  A
C436        S442   1.707       .  A
C436        C437   1.402       .  A
C437        C438   1.403       .  A
C437        H446   1.084       .  S
C438        C441   1.372       .  A
S439        C440   1.720       .  A
C440        C441   1.385   1_565  A
C441        H447   1.084       .  S
S442        C443   1.723   1_545  A
C443        C444   1.385       .  A
C444        H448   1.083       .  S
C449        S455   1.711       .  A
C449        C454   1.386       .  A
C449        C450   1.404       .  A
C450        C451   1.405       .  A
C450        H461   1.083       .  S
C451        C460   1.373       .  A
C451        C452   1.387       .  A
C452        S458   1.705       .  A
C452        C453   1.400       .  A
C453        C454   1.401       .  A
C453        H462   1.083       .  S
C454        C457   1.369       .  A
S455        C456   1.725       .  A
C456        C457   1.386       .  A
C457        H463   1.083       .  S
S458        C459   1.722       .  A
C459        C460   1.389       .  A
C460        H464   1.083       .  S
C465        S471   1.707       .  A
C465        C470   1.387       .  A
C465        C466   1.400       .  A
C466        C467   1.402       .  A
C466        H477   1.083       .  S
C467        C476   1.369       .  A
C467        C468   1.386       .  A
C468        S474   1.711       .  A
C468        C469   1.403       .  A
C469        C470   1.404       .  A
C469        H478   1.083       .  S
C470        C473   1.372       .  A
S471        C472   1.723       .  A
C472        C473   1.388       .  A
C473        H479   1.083       .  S
S474        C475   1.725       .  A
C475        C476   1.387       .  A
C476        H480   1.083       .  S
C481        S487   1.706       .  A
C481        C486   1.387   1_455  A
C481        C482   1.401       .  A
C482        C483   1.401   1_455  A
C482        H493   1.084       .  S
C483        C492   1.371   1_655  A
C483        C484   1.388       .  A
C484        S490   1.708       .  A
C484        C485   1.402       .  A
C485        C486   1.403       .  A
C485        H494   1.084       .  S
C486        C489   1.372       .  A
S487        C488   1.722   1_455  A
C488        C489   1.387       .  A
C489        H495   1.084       .  S
S490        C491   1.721       .  A
C491        C492   1.383   1_655  A
C492        H496   1.084       .  S
C497        S503   1.707       .  A
C497        C502   1.388   1_465  A
C497        C498   1.400       .  A
C498        C499   1.401       .  A
C498        H509   1.086       .  S
C499        C508   1.368       .  A
C499        C500   1.388   1_465  A
C500        S506   1.711       .  A
C500        C501   1.403       .  A
C501        C502   1.404       .  A
C501        H510   1.085       .  S
C502        C505   1.371       .  A
S503        C504   1.720       .  A
C504        C505   1.386   1_465  A
C505        H511   1.084       .  S
S506        C507   1.722       .  A
C507        C508   1.383   1_645  A
C508        H512   1.085       .  S
C513        S519   1.706       .  A
C513        C518   1.387   1_655  A
C513        C514   1.401       .  A
C514        C515   1.402       .  A
C514        H525   1.083       .  S
C515        C524   1.370       .  A
C515        C516   1.387   1_655  A
C516        S522   1.707       .  A
C516        C517   1.402       .  A
C517        C518   1.403       .  A
C517        H526   1.083       .  S
C518        C521   1.371       .  A
S519        C520   1.723       .  A
C520        C521   1.387   1_655  A
C521        H527   1.083       .  S
S522        C523   1.724   1_455  A
C523        C524   1.386       .  A
C524        H528   1.083       .  S
C529        S535   1.708       .  A
C529        C534   1.387   1_455  A
C529        C530   1.400       .  A
C530        C531   1.402       .  A
C530        H541   1.083       .  S
C531        C540   1.368       .  A
C531        C532   1.387   1_455  A
C532        S538   1.709       .  A
C532        C533   1.401       .  A
C533        C534   1.403       .  A
C533        H542   1.083       .  S
C534        C537   1.369       .  A
S535        C536   1.723       .  A
C536        C537   1.387   1_455  A
C537        H543   1.083       .  S
S538        C539   1.723       .  A
C539        C540   1.387   1_655  A
C540        H544   1.084       .  S
C545        S551   1.709       .  A
C545        C550   1.387       .  A
C545        C546   1.403       .  A
C546        C547   1.404       .  A
C546        H557   1.082       .  S
C547        C556   1.373       .  A
C547        C548   1.387       .  A
C548        S554   1.707       .  A
C548        C549   1.402       .  A
C549        C550   1.402       .  A
C549        H558   1.082       .  S
C550        C553   1.372       .  A
S551        C552   1.722       .  A
C552        C553   1.385       .  A
C553        H559   1.083       .  S
S554        C555   1.722       .  A
C555        C556   1.387       .  A
C556        H560   1.083       .  S
C561        S567   1.707       .  A
C561        C566   1.387       .  A
C561        C562   1.400   1_556  A
C562        C563   1.402       .  A
C562        H573   1.083       .  S
C563        C572   1.368       .  A
C563        C564   1.387       .  A
C564        S570   1.710       .  A
C564        C565   1.403   1_554  A
C565        C566   1.404       .  A
C565        H574   1.083       .  S
C566        C569   1.371       .  A
S567        C568   1.722       .  A
C568        C569   1.388       .  A
C569        H575   1.083       .  S
S570        C571   1.724       .  A
C571        C572   1.387       .  A
C572        H576   1.083       .  S
C577        S583   1.706       .  A
C577        C582   1.388   1_565  A
C577        C578   1.401       .  A
C578        C579   1.402       .  A
C578        H589   1.082       .  S
C579        C588   1.371       .  A
C579        C580   1.387   1_565  A
C580        S586   1.706       .  A
C580        C581   1.401       .  A
C581        C582   1.402       .  A
C581        H590   1.082       .  S
C582        C585   1.371       .  A
S583        C584   1.720   1_565  A
C584        C585   1.384       .  A
C585        H591   1.083       .  S
S586        C587   1.722       .  A
C587        C588   1.385   1_545  A
C588        H592   1.083       .  S
C593        S599   1.712       .  A
C593        C598   1.386   1_565  A
C593        C594   1.405   1_556  A
C594        C595   1.406       .  A
C594        H605   1.083       .  S
C595        C604   1.373       .  A
C595        C596   1.387       .  A
C596        S602   1.703       .  A
C596        C597   1.398   1_564  A
C597        C598   1.399       .  A
C597        H606   1.083       .  S
C598        C601   1.367       .  A
S599        C600   1.726       .  A
C600        C601   1.385   1_565  A
C601        H607   1.083       .  S
S602        C603   1.720       .  A
C603        C604   1.390       .  A
C604        H608   1.083       .  S
C609        S615   1.703       .  A
C609        C614   1.387       .  A
C609        C610   1.401       .  A
C610        C611   1.400       .  A
C610        H621   1.083       .  S
C611        C620   1.371       .  A
C611        C612   1.387       .  A
C612        S618   1.704       .  A
C612        C613   1.402       .  A
C613        C614   1.402       .  A
C613        H622   1.083       .  S
C614        C617   1.372       .  A
S615        C616   1.723       .  A
C616        C617   1.386       .  A
C617        H623   1.083       .  S
S618        C619   1.725       .  A
C619        C620   1.385       .  A
C620        H624   1.083       .  S
C625        S631   1.704       .  A
C625        C630   1.387       .  A
C625        C626   1.401       .  A
C626        C627   1.401       .  A
C626        H637   1.083       .  S
C627        C636   1.371       .  A
C627        C628   1.387       .  A
C628        S634   1.705       .  A
C628        C629   1.401       .  A
C629        C630   1.402       .  A
C629        H638   1.083       .  S
C630        C633   1.371       .  A
S631        C632   1.723       .  A
C632        C633   1.386       .  A
C633        H639   1.083       .  S
S634        C635   1.724       .  A
C635        C636   1.386       .  A
C636        H640   1.083       .  S
C641        S647   1.710       .  A
C641        C646   1.387   1_655  A
C641        C642   1.403       .  A
C642        C643   1.404       .  A
C642        H653   1.083       .  S
C643        C652   1.372       .  A
C643        C644   1.387   1_655  A
C644        S650   1.709       .  A
C644        C645   1.402       .  A
C645        C646   1.403       .  A
C645        H654   1.082       .  S
C646        C649   1.371       .  A
S647        C648   1.722       .  A
C648        C649   1.386   1_655  A
C649        H655   1.083       .  S
S650        C651   1.721       .  A
C651        C652   1.386   1_455  A
C652        H656   1.083       .  S
C657        S663   1.709       .  A
C657        C662   1.387   1_455  A
C657        C658   1.403   1_554  A
C658        C659   1.404       .  A
C658        H669   1.083       .  S
C659        C668   1.372       .  A
C659        C660   1.387   1_455  A
C660        S666   1.706       .  A
C660        C661   1.400   1_556  A
C661        C662   1.401       .  A
C661        H670   1.083       .  S
C662        C665   1.369       .  A
S663        C664   1.725       .  A
C664        C665   1.386   1_455  A
C665        H671   1.083       .  S
S666        C667   1.723       .  A
C667        C668   1.388   1_655  A
C668        H672   1.083       .  S
C673        S679   1.711       .  A
C673        C678   1.388   1_445  A
C673        C674   1.402       .  A
C674        C675   1.404   1_545  A
C674        H685   1.087       .  S
C675        C684   1.372   1_565  A
C675        C676   1.387   1_455  A
C676        S682   1.709       .  A
C676        C677   1.402       .  A
C677        C678   1.403       .  A
C677        H686   1.086       .  S
C678        C681   1.371       .  A
S679        C680   1.720   1_545  A
C680        C681   1.384   1_455  A
C681        H687   1.085       .  S
S682        C683   1.723       .  A
C683        C684   1.388   1_665  A
C684        H688   1.085       .  S
C689        S695   1.708       .  A
C689        C694   1.387   1_455  A
C689        C690   1.401   1_556  A
C690        C691   1.403       .  A
C690        H701   1.083       .  S
C691        C700   1.369       .  A
C691        C692   1.386   1_455  A
C692        S698   1.710       .  A
C692        C693   1.403   1_554  A
C693        C694   1.404       .  A
C693        H702   1.083       .  S
C694        C697   1.371       .  A
S695        C696   1.724   1_455  A
C696        C697   1.387       .  A
C697        H703   1.083   1_565  S
S698        C699   1.724       .  A
C699        C700   1.387   1_655  A
C700        H704   1.083       .  S
C705        S711   1.709       .  A
C705        C710   1.387   1_655  A
C705        C706   1.403       .  A
C706        C707   1.404       .  A
C706        H717   1.083       .  S
C707        C716   1.371       .  A
C707        C708   1.387   1_655  A
C708        S714   1.707       .  A
C708        C709   1.400       .  A
C709        C710   1.402       .  A
C709        H718   1.083       .  S
C710        C713   1.369       .  A
S711        C712   1.725       .  A
C712        C713   1.386   1_655  A
C713        H719   1.083       .  S
S714        C715   1.722       .  A
C715        C716   1.388   1_455  A
C716        H720   1.083       .  S
C721        S727   1.707       .  A
C721        C726   1.387   1_655  A
C721        C722   1.401       .  A
C722        C723   1.402       .  A
C722        H733   1.083       .  S
C723        C732   1.370       .  A
C723        C724   1.387   1_655  A
C724        S730   1.709       .  A
C724        C725   1.403       .  A
C725        C726   1.404       .  A
C725        H734   1.083       .  S
C726        C729   1.372       .  A
S727        C728   1.723       .  A
C728        C729   1.388   1_655  A
C729        H735   1.083       .  S
S730        C731   1.725       .  A
C731        C732   1.387   1_455  A
C732        H736   1.083       .  S
