geometry optimzed in LAMMPS
_audit_creation_date              2020-11-30 
_audit_creation_method            'lammps2cif' 
_symmetry_space_group_name_H-M    'P1' 
_symmetry_Int_Tables_number       1 
_symmetry_cell_setting            triclinic 
loop_ 
_symmetry_equiv_pos_as_xyz 
  x,y,z 
_cell_length_a                    53.11541884 
_cell_length_b                    53.10266361614061 
_cell_length_c                    45.95350327932443 
_cell_angle_alpha                 89.91699795242928 
_cell_angle_beta                  89.91629996095816 
_cell_angle_gamma                 90.03902265416569 
loop_ 
_atom_site_label 
_atom_site_type_symbol 
_atom_site_fract_x 
_atom_site_fract_y 
_atom_site_fract_z 
_atom_site_charge 
C1          C  0.52831040  0.90501674  0.15261468     0.89000
C2          C  0.50326858  0.89612769  0.13959667    -0.51300
C3          C  0.48270457  0.90643657  0.15282883     0.11900
C4          C  0.48907374  0.92451799  0.17794793     0.22800
C5          C  0.52739424  0.93385911  0.15090836    -0.52000
C6          C  0.50687509  0.94400237  0.16421185     0.12000
C7          C  0.52667775  0.89886826  0.18521304    -0.51500
C8          C  0.50610593  0.90919771  0.19847321     0.12500
H9          H  0.50194284  0.88360348  0.12097648     0.17100
H10         H  0.47234265  0.93297012  0.18871690     0.02800
H11         H  0.54167323  0.94522543  0.14016655     0.17400
H12         H  0.54079682  0.88803562  0.19685548     0.17200
C13         C  0.47261995  0.90492704  0.33247602     0.89000
C14         C  0.49760566  0.89598512  0.34559132    -0.51300
C15         C  0.51823147  0.90619635  0.33232114     0.11900
C16         C  0.51196942  0.92424805  0.30708540     0.22800
C17         C  0.47366576  0.93377427  0.33401488    -0.52000
C18         C  0.49425632  0.94381366  0.32068206     0.12000
C19         C  0.47425493  0.89871766  0.29991611    -0.51500
C20         C  0.49487411  0.90897311  0.28662106     0.12500
H21         H  0.49885299  0.88349938  0.36428882     0.17100
H22         H  0.52874784  0.93262637  0.29628808     0.02800
H23         H  0.45943570  0.94521053  0.34467483     0.17400
H24         H  0.46007040  0.88795583  0.28830601     0.17200
C25         C  0.47316324  0.05884974  0.15242837     0.89000
C26         C  0.49820046  0.06782731  0.13936294    -0.51300
C27         C  0.51876886  0.05760746  0.15264377     0.11900
C28         C  0.51241149  0.03949893  0.17781766     0.22800
C29         C  0.47418773  0.03001045  0.15082294    -0.52000
C30         C  0.49471910  0.01994600  0.16414826     0.12000
C31         C  0.47470295  0.06501038  0.18500448    -0.51500
C32         C  0.49527904  0.05475613  0.19829411     0.12500
H33         H  0.49952507  0.08036147  0.12070632     0.17100
H34         H  0.52914850  0.03111302  0.18861082     0.02800
H35         H  0.45997765  0.01859103  0.14012383     0.17400
H36         H  0.46051387  0.07578780  0.19661599     0.17200
C37         C  0.52866395  0.05849022  0.33224308     0.89000
C38         C  0.50364087  0.06736928  0.34540538    -0.51300
C39         C  0.48303817  0.05719958  0.33213461     0.11900
C40         C  0.48934665  0.03926278  0.30686133     0.22800
C41         C  0.52761032  0.02963890  0.33372058    -0.52000
C42         C  0.50703318  0.01965007  0.32041365     0.12000
C43         C  0.52706635  0.06483540  0.29969195    -0.51500
C44         C  0.50645639  0.05463965  0.28640801     0.12500
H45         H  0.50235400  0.07977949  0.36413240     0.17100
H46         H  0.47258297  0.03092355  0.29607436     0.02800
H47         H  0.54179934  0.01816211  0.34438674     0.17400
H48         H  0.54125239  0.07566927  0.28808471     0.17200
C49         C  0.92388214  0.45395127  0.15333719     0.89000
C50         C  0.91501897  0.47900224  0.14025097    -0.51300
C51         C  0.92530961  0.49956240  0.15347683     0.11900
C52         C  0.94336100  0.49319246  0.17861927     0.22800
C53         C  0.95272265  0.45490482  0.15166581    -0.52000
C54         C  0.96285546  0.47543989  0.16491986     0.12000
C55         C  0.91769099  0.45555345  0.18592401    -0.51500
C56         C  0.92800554  0.47613130  0.19915716     0.12500
H57         H  0.90249670  0.48034046  0.12163290     0.17100
H58         H  0.95179562  0.50993287  0.18935963     0.02800
H59         H  0.96408953  0.44067905  0.14090426     0.17400
H60         H  0.90681331  0.44142654  0.19757217     0.17200
C61         C  0.92382062  0.50946863  0.33319954     0.89000
C62         C  0.91490423  0.48439977  0.34625843    -0.51300
C63         C  0.92508228  0.46385495  0.33287759     0.11900
C64         C  0.94308651  0.47025610  0.30763793     0.22800
C65         C  0.95266133  0.50844676  0.33466147    -0.52000
C66         C  0.96267115  0.48792446  0.32125455     0.12000
C67         C  0.91754432  0.50797146  0.30063977    -0.51500
C68         C  0.92776886  0.48741250  0.28726196     0.12500
H69         H  0.90244569  0.48303663  0.36497639     0.17100
H70         H  0.95144078  0.45353019  0.29677755     0.02800
H71         H  0.96411647  0.52262872  0.34536282     0.17400
H72         H  0.90673875  0.52218410  0.28910033     0.17200
C73         C  0.07759312  0.50991690  0.15286393     0.89000
C74         C  0.08676368  0.48499397  0.13979257    -0.51300
C75         C  0.07657999  0.46428878  0.15292551     0.11900
C76         C  0.05833069  0.47041871  0.17801832     0.22800
C77         C  0.04876404  0.50871454  0.15107652    -0.52000
C78         C  0.03874722  0.48804867  0.16429836     0.12000
C79         C  0.08359578  0.50828189  0.18546096    -0.51500
C80         C  0.07337886  0.48758839  0.19862639     0.12500
H81         H  0.09937959  0.48384334  0.12120094     0.17100
H82         H  0.04998793  0.45357819  0.18872860     0.02800
H83         H  0.03731970  0.52293483  0.14040592     0.17400
H84         H  0.09421053  0.52250907  0.19718619     0.17200
C85         C  0.07745777  0.45375612  0.33232707     0.89000
C86         C  0.08636711  0.47869420  0.34561568    -0.51300
C87         C  0.07608535  0.49937438  0.33258597     0.11900
C88         C  0.05800371  0.49321557  0.30740794     0.22800
C89         C  0.04861716  0.45468661  0.33404441    -0.52000
C90         C  0.03850885  0.47534307  0.32097095     0.12000
C91         C  0.08360338  0.45563582  0.29976258    -0.51500
C92         C  0.07327999  0.47630256  0.28671832     0.12500
H93         H  0.09889965  0.47986448  0.36424030     0.17100
H94         H  0.04957410  0.51003825  0.29680376     0.02800
H95         H  0.03723622  0.44034017  0.34464668     0.17400
H96         H  0.09438095  0.44156968  0.28796052     0.17200
C97         C  0.92122963  0.34868001  0.07992219     0.89000
C98         C  0.91677213  0.34936794  0.04700108    -0.51300
C99         C  0.92661946  0.32908200  0.03278801     0.11900
C100        C  0.93990970  0.30994438  0.05273063     0.22800
C101        C  0.91027791  0.32349389  0.09028743    -0.52000
C102        C  0.92012676  0.30318679  0.07603692     0.12000
C103        C  0.94978338  0.34593237  0.08335150    -0.51500
C104        C  0.95955220  0.32571319  0.06913166     0.12500
H105        H  0.90748947  0.36485464  0.03584277     0.17100
H106        H  0.94800792  0.29347532  0.04112739     0.02800
H107        H  0.89673307  0.32180219  0.10793634     0.17400
H108        H  0.96134457  0.35905990  0.09560791     0.17200
C109        C  0.93051366  0.35154289  0.39724437     0.89000
C110        C  0.95910153  0.34771677  0.39698953    -0.51300
C111        C  0.96676710  0.32687330  0.41180954     0.11900
C112        C  0.94521555  0.31160939  0.42547173     0.22800
C113        C  0.91953817  0.32697638  0.38512737    -0.52000
C114        C  0.92726674  0.30607254  0.40000912     0.12000
C115        C  0.92322390  0.35177951  0.42957600    -0.51500
C116        C  0.93099830  0.33082093  0.44428389     0.12500
H117        H  0.97216759  0.36062656  0.38654891     0.17100
H118        H  0.95160203  0.29462139  0.43753869     0.02800
H119        H  0.90722733  0.32613343  0.36629531     0.17400
H120        H  0.91348295  0.36732883  0.44001868     0.17200
C121        C  0.07154429  0.35218307  0.08810451     0.89000
C122        C  0.04296780  0.34824030  0.08847035    -0.51300
C123        C  0.03531636  0.32724308  0.07398365     0.11900
C124        C  0.05690175  0.31193373  0.06050934     0.22800
C125        C  0.08259764  0.32776008  0.10057201    -0.52000
C126        C  0.07489453  0.30668176  0.08605034     0.12000
C127        C  0.07878639  0.35215962  0.05575163    -0.51500
C128        C  0.07106191  0.33103695  0.04136067     0.12500
H129        H  0.02988728  0.36119210  0.09874839     0.17100
H130        H  0.05054022  0.29481361  0.04871703     0.02800
H131        H  0.09491479  0.32713724  0.11941245     0.17400
H132        H  0.08848709  0.36765136  0.04506652     0.17200
C133        C  0.08078806  0.34820910  0.40550217     0.89000
C134        C  0.08550169  0.34893210  0.43838731    -0.51300
C135        C  0.07565272  0.32870531  0.45282827     0.11900
C136        C  0.06215552  0.30957506  0.43310097     0.22800
C137        C  0.09154901  0.32298862  0.39515423    -0.52000
C138        C  0.08174319  0.30274229  0.40964029     0.12000
C139        C  0.05220997  0.34554028  0.40237934    -0.51500
C140        C  0.04247299  0.32537333  0.41679440     0.12500
H141        H  0.09488477  0.36444031  0.44936858     0.17100
H142        H  0.05406570  0.29314034  0.44485660     0.02800
H143        H  0.10494799  0.32122977  0.37737669     0.17400
H144        H  0.04061146  0.35866019  0.39013432     0.17200
C145        C  0.37064711  0.91166900  0.08792252     0.89000
C146        C  0.36673487  0.94024889  0.08812568    -0.51300
C147        C  0.34579364  0.94787867  0.07352562     0.11900
C148        C  0.33047791  0.92626112  0.06015422     0.22800
C149        C  0.34620011  0.90060592  0.10037544    -0.52000
C150        C  0.32516851  0.90827998  0.08575025     0.12000
C151        C  0.37067939  0.90437749  0.05560866    -0.51500
C152        C  0.34958028  0.91206543  0.04115085     0.10100
H153        H  0.37970475  0.95335308  0.09831795     0.17100
H154        H  0.31339254  0.93259430  0.04827881     0.02800
H155        H  0.34553076  0.88826918  0.11924440     0.17400
H156        H  0.38616045  0.89464178  0.04500993     0.17200
C157        C  0.36700942  0.90231471  0.40562367     0.89000
C158        C  0.36748938  0.89742845  0.43848027    -0.51300
C159        C  0.34720374  0.90723633  0.45275697     0.11900
C160        C  0.32823649  0.92085199  0.43292307     0.22800
C161        C  0.34183832  0.89163534  0.39500216    -0.52000
C162        C  0.32151929  0.90138899  0.40933484     0.12000
C163        C  0.36443653  0.93093381  0.40258526    -0.51500
C164        C  0.34418146  0.94061683  0.41684943     0.12500
H165        H  0.38291488  0.88800853  0.44958285     0.17100
H166        H  0.31174826  0.92889126  0.44456867     0.02800
H167        H  0.34017318  0.87829068  0.37719639     0.17400
H168        H  0.37766731  0.94258429  0.39050853     0.17200
C169        C  0.36775586  0.06189899  0.07917901     0.89000
C170        C  0.36826835  0.06679593  0.04631832    -0.51300
C171        C  0.34794018  0.05704833  0.03210191     0.11900
C172        C  0.32893401  0.04344153  0.05198452     0.22800
C173        C  0.34261397  0.07263533  0.08986210    -0.52000
C174        C  0.32227393  0.06292350  0.07557442     0.12000
C175        C  0.36507751  0.03328832  0.08222864    -0.51500
C176        C  0.34479721  0.02363807  0.06803572     0.12500
H177        H  0.38369894  0.07624135  0.03518322     0.17100
H178        H  0.31241900  0.03544155  0.04038827     0.02800
H179        H  0.34098041  0.08598416  0.10766787     0.17400
H180        H  0.37823635  0.02161867  0.09432105     0.17200
C181        C  0.37058057  0.05236931  0.39672269     0.89000
C182        C  0.36658425  0.02380310  0.39686075    -0.51300
C183        C  0.34567176  0.01633120  0.41170094     0.11900
C184        C  0.33047721  0.03806785  0.42499623     0.22800
C185        C  0.34610252  0.06335998  0.38434797    -0.52000
C186        C  0.32509785  0.05582903  0.39924123     0.12000
C187        C  0.37075973  0.05992412  0.42894754    -0.51500
C188        C  0.34970518  0.05238926  0.44367697     0.12500
H189        H  0.37944048  0.01059642  0.38663803     0.17100
H190        H  0.31342688  0.03184302  0.43709004     0.02800
H191        H  0.34538954  0.07550240  0.36532222     0.17400
H192        H  0.38633309  0.06967932  0.43931324     0.17200
C193        C  0.63370932  0.90203435  0.07904387     0.89000
C194        C  0.63325507  0.89765715  0.04609925    -0.51300
C195        C  0.65370563  0.90744674  0.03204749     0.11900
C196        C  0.67277283  0.92057925  0.05219027     0.22800
C197        C  0.65872817  0.89093168  0.08956554    -0.52000
C198        C  0.67920385  0.90071003  0.07549847     0.12000
C199        C  0.63661450  0.93056249  0.08258352    -0.51500
C200        C  0.65700929  0.94025278  0.06855866     0.12500
H201        H  0.61778536  0.88850326  0.03480335     0.17100
H202        H  0.68938592  0.92863002  0.04074941     0.02800
H203        H  0.66019087  0.87736499  0.10721304     0.17400
H204        H  0.62348477  0.94216529  0.09480806     0.17200
C205        C  0.63049988  0.91131991  0.39683520     0.89000
C206        C  0.63457500  0.93988376  0.39636263    -0.51300
C207        C  0.65562505  0.94746265  0.41079129     0.11900
C208        C  0.67086375  0.92584478  0.42426913     0.22800
C209        C  0.65483509  0.90010805  0.38434548    -0.52000
C210        C  0.67596931  0.90774507  0.39879318     0.12000
C211        C  0.63055758  0.90417332  0.42922337    -0.51500
C212        C  0.65174378  0.91185254  0.44352143     0.12500
H213        H  0.62162389  0.95301164  0.38616845     0.17100
H214        H  0.68803029  0.93216152  0.43599585     0.02800
H215        H  0.65536035  0.88771200  0.36556573     0.17400
H216        H  0.61503413  0.89460998  0.44000272     0.17200
C217        C  0.63102052  0.05219433  0.08812310     0.89000
C218        C  0.63494506  0.02361617  0.08860236    -0.51300
C219        C  0.65588955  0.01594294  0.07398574     0.11900
C220        C  0.67115826  0.03748735  0.06029450     0.22800
C221        C  0.65546663  0.06331945  0.10034878    -0.52000
C222        C  0.67647261  0.05559156  0.08568210     0.12000
C223        C  0.63094889  0.05932135  0.05573434    -0.51500
C224        C  0.65201929  0.05155651  0.04123064     0.12500
H225        H  0.62200401  0.01055465  0.09899723     0.17100
H226        H  0.68823699  0.03110186  0.04840655     0.02800
H227        H  0.65615829  0.07573422  0.11910220     0.17400
H228        H  0.61544594  0.06899407  0.04511909     0.17200
C229        C  0.63408384  0.06147030  0.40571817     0.89000
C230        C  0.63364766  0.06606906  0.43862922    -0.51300
C231        C  0.65399685  0.05620175  0.45271882     0.11900
C232        C  0.67296158  0.04279876  0.43264892     0.22800
C233        C  0.65922330  0.07231032  0.39504641    -0.52000
C234        C  0.67960193  0.06247481  0.40917153     0.12000
C235        C  0.63673798  0.03290009  0.40243085    -0.51500
C236        C  0.65703590  0.02314427  0.41648011     0.12500
H237        H  0.61823562  0.07538284  0.44988689     0.17100
H238        H  0.68949048  0.03468959  0.44412491     0.02800
H239        H  0.66082563  0.08577534  0.37730570     0.17400
H240        H  0.62353492  0.02132165  0.39030444     0.17200
In241      In  0.91336750  0.19017354  0.13974046     1.36900
C242        C  0.96241082  0.18328400  0.13189977     0.80000
O243        O  0.91236957  0.21221704  0.09759545    -0.58400
O244        O  0.90916333  0.23212321  0.13745900    -0.49300
C245        C  0.87775060  0.15737003  0.12470104     0.72700
O246        O  0.90066775  0.15150914  0.12605146    -0.44200
C247        C  0.90693324  0.18837902  0.19717977     0.77400
O248        O  0.94628279  0.17215742  0.11643100    -0.56000
O249        O  0.89709492  0.20524477  0.18159572    -0.46100
O250        O  0.95352252  0.19749685  0.15121941    -0.52500
C251        C  0.91067026  0.23321753  0.11017017     0.87600
O252        O  0.87305867  0.18019844  0.12962559    -0.54400
O253        O  0.91960572  0.17223318  0.18348545    -0.57600
In254      In  0.79167420  0.06780841  0.14234013     1.36900
C255        C  0.79913014  0.01922534  0.13211332     0.80000
O256        O  0.80985456  0.06032042  0.18566287    -0.58400
O257        O  0.77869962  0.08541200  0.18430869    -0.49300
C258        C  0.82407303  0.10338775  0.12585874     0.72700
O259        O  0.83018702  0.08058625  0.12814944    -0.44200
C260        C  0.74676193  0.06913553  0.11694294     0.77400
O261        O  0.80736359  0.03599110  0.11511013    -0.56000
O262        O  0.74953218  0.06961357  0.14410600    -0.46100
O263        O  0.78769865  0.02727807  0.15419798    -0.52500
C264        C  0.79495397  0.07429264  0.19959333     0.87600
O265        O  0.80118427  0.10796334  0.13060360    -0.54400
O266        O  0.76691668  0.06947624  0.10247533    -0.57600
In267      In  0.91454478  0.19087636  0.34303896     1.36900
C268        C  0.96307537  0.18276385  0.35274984     0.80000
O269        O  0.92178885  0.17357518  0.29920317    -0.58400
O270        O  0.89602308  0.20410837  0.30164554    -0.49300
C271        C  0.87918417  0.15829748  0.35968788     0.72700
O272        O  0.90192027  0.15216972  0.35673813    -0.44200
C273        C  0.91379119  0.23570168  0.36880261     0.77400
O274        O  0.94631449  0.17436104  0.36963825    -0.56000
O275        O  0.91359448  0.23305792  0.34162527    -0.46100
O276        O  0.95504315  0.19469965  0.33101296    -0.52500
C277        C  0.90734351  0.18838789  0.28581797     0.87600
O278        O  0.87457807  0.18126710  0.35548784    -0.54400
O279        O  0.91295244  0.21547367  0.38312284    -0.57600
In280      In  0.79273844  0.06877703  0.34569842     1.36900
C281        C  0.79941998  0.01973338  0.35394184     0.80000
O282        O  0.77051251  0.07012613  0.38767464    -0.58400
O283        O  0.75080197  0.07314718  0.34766196    -0.49300
C284        C  0.82533073  0.10453039  0.36084656     0.72700
O285        O  0.83111696  0.08156319  0.36024855    -0.44200
C286        C  0.79520488  0.07474374  0.28823417     0.77400
O287        O  0.81085127  0.03591783  0.36903561    -0.56000
O288        O  0.77813314  0.08464629  0.30344911    -0.46100
O289        O  0.78498017  0.02856508  0.33481358    -0.52500
C290        C  0.74957980  0.07178347  0.37495411     0.87600
O291        O  0.80265284  0.10922713  0.35509885    -0.54400
O292        O  0.81122960  0.06223008  0.30230411    -0.57600
In293      In  0.91297034  0.77303051  0.34531676     1.36900
C294        C  0.96209112  0.77998895  0.35230763     0.80000
O295        O  0.91228382  0.75128042  0.38769693    -0.58400
O296        O  0.90860179  0.73110274  0.34809184    -0.49300
C297        C  0.87698331  0.80538104  0.36053807     0.72700
O298        O  0.89994608  0.81123463  0.36027170    -0.44200
C299        C  0.90665163  0.77513100  0.28785056     0.77400
O300        O  0.94612456  0.79114644  0.36798530    -0.56000
O301        O  0.89807736  0.75733584  0.30311452    -0.46100
O302        O  0.95301449  0.76576459  0.33314750    -0.52500
C303        C  0.91040866  0.73019386  0.37535838     0.87600
O304        O  0.87240338  0.78271231  0.35453650    -0.54400
O305        O  0.91797030  0.79204195  0.30189534    -0.57600
In306      In  0.79141229  0.89529622  0.34200982     1.36900
C307        C  0.79908833  0.94387417  0.35231526     0.80000
O308        O  0.80914020  0.90309184  0.29839972    -0.58400
O309        O  0.77858481  0.87729317  0.30019451    -0.49300
C310        C  0.82356967  0.85957554  0.35882316     0.72700
O311        O  0.83019193  0.88200392  0.35439913    -0.44200
C312        C  0.74636014  0.89414386  0.36734938     0.77400
O313        O  0.80806738  0.92701948  0.36864912    -0.56000
O314        O  0.74928399  0.89238460  0.34025687    -0.46100
O315        O  0.78673352  0.93591579  0.33088412    -0.52500
C316        C  0.79450522  0.88871919  0.28468388     0.87600
O317        O  0.80035469  0.85549284  0.35602372    -0.54400
O318        O  0.76645852  0.89505094  0.38183854    -0.57600
In319      In  0.91447811  0.77317867  0.14169471     1.36900
C320        C  0.96295088  0.78130610  0.13120685     0.80000
O321        O  0.92211075  0.79010802  0.18572824    -0.58400
O322        O  0.89568249  0.76018628  0.18317962    -0.49300
C323        C  0.87923528  0.80567290  0.12464251     0.72700
O324        O  0.90160511  0.81214921  0.12955115    -0.44200
C325        C  0.91357983  0.72811384  0.11644591     0.77400
O326        O  0.94600720  0.79051925  0.11522715    -0.56000
O327        O  0.91215681  0.73105227  0.14354280    -0.46100
O328        O  0.95514132  0.76846630  0.15239935    -0.52500
C329        C  0.90733868  0.77556334  0.19909588     0.87600
O330        O  0.87496942  0.78244779  0.12713023    -0.54400
O331        O  0.91402208  0.74821568  0.10184734    -0.57600
In332      In  0.79226344  0.89435510  0.13864934     1.36900
C333        C  0.79896292  0.94338381  0.13039920     0.80000
O334        O  0.76995396  0.89257269  0.09686179    -0.58400
O335        O  0.75027478  0.89035116  0.13703796    -0.49300
C336        C  0.82509981  0.85897840  0.12319587     0.72700
O337        O  0.83078450  0.88196766  0.12416627    -0.44200
C338        C  0.79474634  0.88808633  0.19605282     0.77400
O339        O  0.81015375  0.92721673  0.11503548    -0.56000
O340        O  0.77783048  0.87799527  0.18080267    -0.46100
O341        O  0.78471304  0.93454597  0.14977054    -0.52500
C342        C  0.74903025  0.89129007  0.10972721     0.87600
O343        O  0.80239791  0.85408023  0.12871252    -0.54400
O344        O  0.81063155  0.90088082  0.18203372    -0.57600
In345      In  0.08778665  0.18989945  0.34623489     1.36900
C346        C  0.03884421  0.18283131  0.35444405     0.80000
O347        O  0.09046439  0.21180208  0.38830001    -0.58400
O348        O  0.09103496  0.23190115  0.34834154    -0.49300
C349        C  0.12342876  0.15711965  0.36098298     0.72700
O350        O  0.10035980  0.15173342  0.36174177    -0.44200
C351        C  0.09365404  0.18760026  0.28882984     0.77400
O352        O  0.05507577  0.17126430  0.36933600    -0.56000
O353        O  0.10377836  0.20451606  0.30404885    -0.46100
O354        O  0.04757908  0.19766595  0.33560845    -0.52500
C355        C  0.09092855  0.23286941  0.37567225     0.87600
O356        O  0.12833836  0.17952932  0.35400996    -0.54400
O357        O  0.08094793  0.17165110  0.30286865    -0.57600
In358      In  0.20937068  0.06772139  0.34306753     1.36900
C359        C  0.20164153  0.01914769  0.35307311     0.80000
O360        O  0.19229160  0.06003731  0.29919596    -0.58400
O361        O  0.22211257  0.08662306  0.30158709    -0.49300
C362        C  0.17670827  0.10283937  0.35999590     0.72700
O363        O  0.17027723  0.08049246  0.35483444    -0.44200
C364        C  0.25446302  0.06882078  0.36824084     0.77400
O365        O  0.19266935  0.03588330  0.36953663    -0.56000
O366        O  0.25150257  0.07050696  0.34115408    -0.46100
O367        O  0.21406876  0.02721901  0.33168736    -0.52500
C368        C  0.20673049  0.07486509  0.28576722     0.87600
O369        O  0.19996452  0.10707878  0.35800590    -0.54400
O370        O  0.23437264  0.06795582  0.38282728    -0.57600
In371      In  0.08694582  0.19112083  0.14297675     1.36900
C372        C  0.03829845  0.18353592  0.13324187     0.80000
O373        O  0.07909197  0.17320853  0.18641491    -0.58400
O374        O  0.10475191  0.20392470  0.18486053    -0.49300
C375        C  0.12261634  0.15878272  0.12643803     0.72700
O376        O  0.09995048  0.15244143  0.12957225    -0.44200
C377        C  0.08812985  0.23620621  0.11761098     0.77400
O378        O  0.05496826  0.17510841  0.11627134    -0.56000
O379        O  0.08987110  0.23327821  0.14469838    -0.46100
O380        O  0.04647811  0.19531073  0.15499746    -0.52500
C381        C  0.09332316  0.18790582  0.20024317     0.87600
O382        O  0.12697147  0.18183149  0.13030447    -0.54400
O383        O  0.08723053  0.21609840  0.10313879    -0.57600
In384      In  0.20954622  0.06946872  0.13957063     1.36900
C385        C  0.20234809  0.02059578  0.13120435     0.80000
O386        O  0.23143034  0.07134555  0.09734783    -0.58400
O387        O  0.25151794  0.07316999  0.13718554    -0.49300
C388        C  0.17690757  0.10536944  0.12499257     0.72700
O389        O  0.17132624  0.08233891  0.12457886    -0.44200
C390        C  0.20733683  0.07519063  0.19708143     0.77400
O391        O  0.19103578  0.03694678  0.11621397    -0.56000
O392        O  0.22442029  0.08507100  0.18180133    -0.46100
O393        O  0.21691827  0.02917140  0.15033791    -0.52500
C394        C  0.25248595  0.07237796  0.10986447     0.87600
O395        O  0.19944867  0.11009593  0.13143288    -0.54400
O396        O  0.19125961  0.06270088  0.18306561    -0.57600
In397      In  0.20879337  0.89459795  0.34556321     1.36900
C398        C  0.20149064  0.94340961  0.35424280     0.80000
O399        O  0.23065685  0.89231080  0.38772254    -0.58400
O400        O  0.25080718  0.89156257  0.34781018    -0.49300
C401        C  0.17603262  0.85861482  0.35976262     0.72700
O402        O  0.17031630  0.88161256  0.35976620    -0.44200
C403        C  0.20697742  0.88892266  0.28800895     0.77400
O404        O  0.19032935  0.92698008  0.36934851    -0.56000
O405        O  0.22361118  0.87855689  0.30345266    -0.46100
O406        O  0.21593908  0.93492861  0.33490097    -0.52500
C407        C  0.25174150  0.89186416  0.37514492     0.87600
O408        O  0.19873369  0.85399104  0.35396580    -0.54400
O409        O  0.19114070  0.90184735  0.30188681    -0.57600
In410      In  0.08665479  0.77226887  0.34090763     1.36900
C411        C  0.03798389  0.77972725  0.35056708     0.80000
O412        O  0.07906658  0.79051154  0.29760480    -0.58400
O413        O  0.10448668  0.75962594  0.29889742    -0.49300
C414        C  0.12209423  0.80478532  0.35751898     0.72700
O415        O  0.09921756  0.81071786  0.35570239    -0.44200
C416        C  0.08807247  0.72730018  0.36657999     0.77400
O417        O  0.05457046  0.78807503  0.36764505    -0.56000
O418        O  0.08845268  0.73005013  0.33940198    -0.46100
O419        O  0.04625095  0.76808925  0.32874624    -0.52500
C420        C  0.09319369  0.77579329  0.28363534     0.87600
O421        O  0.12681952  0.78203378  0.35216591    -0.54400
O422        O  0.08839158  0.74749738  0.38090636    -0.57600
In423      In  0.20941467  0.89617130  0.14195314     1.36900
C424        C  0.20202960  0.94481402  0.13214170     0.80000
O425        O  0.19223936  0.90396079  0.18580599    -0.58400
O426        O  0.22199617  0.87731681  0.18345608    -0.49300
C427        C  0.17661950  0.86121880  0.12483758     0.72700
O428        O  0.17043572  0.88378293  0.12906135    -0.44200
C429        C  0.25459411  0.89496921  0.11687335     0.77400
O430        O  0.19368475  0.92821858  0.11507198    -0.56000
O431        O  0.25154520  0.89368004  0.14397535    -0.46100
O432        O  0.21360134  0.93656417  0.15401357    -0.52500
C433        C  0.20664888  0.88916656  0.19926905     0.87600
O434        O  0.19969139  0.85662973  0.12803543    -0.54400
O435        O  0.23456210  0.89546694  0.10224842    -0.57600
In436      In  0.08750976  0.77424679  0.13758615     1.36900
C437        C  0.03865125  0.78160862  0.12915500     0.80000
O438        O  0.09080270  0.75177134  0.09593382    -0.58400
O439        O  0.08987628  0.73217921  0.13620215    -0.49300
C440        C  0.12316296  0.80709891  0.12287888     0.72700
O441        O  0.10009420  0.81244410  0.12206925    -0.44200
C442        C  0.09352115  0.77648145  0.19498340     0.77400
O443        O  0.05501115  0.79218824  0.11341437    -0.56000
O444        O  0.10365429  0.75963861  0.17964231    -0.46100
O445        O  0.04722705  0.76767790  0.14893146    -0.52500
C446        C  0.09050677  0.73086193  0.10891106     0.87600
O447        O  0.12805747  0.78468625  0.12979930    -0.54400
O448        O  0.08077753  0.79243812  0.18105203    -0.57600
C449        C  0.93023153  0.61186936  0.08894965     0.89000
C450        C  0.91938559  0.63646696  0.10118155    -0.51300
C451        C  0.92712229  0.65736599  0.08622941     0.11900
C452        C  0.94496176  0.65178620  0.06062949     0.22800
C453        C  0.92280564  0.61167193  0.05667620    -0.52000
C454        C  0.93058822  0.63264050  0.04193768     0.12000
C455        C  0.95882729  0.61562645  0.08894599    -0.51500
C456        C  0.96650977  0.63644639  0.07406595     0.12500
H457        H  0.90710066  0.63732424  0.12007736     0.17100
H458        H  0.95136505  0.66876131  0.04850798     0.02800
H459        H  0.91296603  0.59615771  0.04629875     0.17400
H460        H  0.97189209  0.60266163  0.09922518     0.17200
C461        C  0.92114653  0.61495738  0.40646934     0.89000
C462        C  0.91649236  0.61437525  0.43935266    -0.51300
C463        C  0.92622555  0.63472702  0.45351456     0.11900
C464        C  0.93960960  0.65385175  0.43354614     0.22800
C465        C  0.91021775  0.64007360  0.39592678    -0.52000
C466        C  0.91995632  0.66046726  0.41011239     0.12000
C467        C  0.94971254  0.61777950  0.40314617    -0.51500
C468        C  0.95936904  0.63809657  0.41727309     0.12500
H469        H  0.90719081  0.59888500  0.45054260     0.17100
H470        H  0.94761539  0.67038697  0.44510436     0.02800
H471        H  0.89678609  0.64165790  0.37819621     0.17400
H472        H  0.96135322  0.60468061  0.39093228     0.17200
C473        C  0.08068452  0.61521204  0.07928205     0.89000
C474        C  0.08546904  0.61482087  0.04638857    -0.51300
C475        C  0.07549386  0.63509431  0.03221103     0.11900
C476        C  0.06181571  0.65391809  0.05215763     0.22800
C477        C  0.09124073  0.64043952  0.08991099    -0.52000
C478        C  0.08131945  0.66071442  0.07564684     0.12000
C479        C  0.05207669  0.61759546  0.08245205    -0.51500
C480        C  0.04222367  0.63781158  0.06829241     0.12500
H481        H  0.09498613  0.59949766  0.03520963     0.17100
H482        H  0.05363129  0.67038456  0.04059968     0.02800
H483        H  0.10465923  0.64216578  0.10763028     0.17400
H484        H  0.04055680  0.60428770  0.09457845     0.17200
C485        C  0.07105219  0.61165146  0.39721594     0.89000
C486        C  0.04250638  0.61577804  0.39699114    -0.51300
C487        C  0.03504530  0.63688993  0.41139797     0.11900
C488        C  0.05678212  0.65213360  0.42462014     0.22800
C489        C  0.08228605  0.63592931  0.38452741    -0.52000
C490        C  0.07477851  0.65712909  0.39894717     0.12000
C491        C  0.07834988  0.61178483  0.42951888    -0.51500
C492        C  0.07082720  0.63303495  0.44379815     0.12500
H493        H  0.02930261  0.60282477  0.38694345     0.17100
H494        H  0.05058268  0.66935102  0.43634057     0.02800
H495        H  0.09458025  0.63637196  0.36561670     0.17400
H496        H  0.08793160  0.59628091  0.44025828     0.17200
C497        C  0.07526706  0.63680520  0.00091720    -0.10800
C498        C  0.07387347  0.63607016  0.47475256    -0.12400
C499        C  0.98607889  0.64296590  0.41729183    -0.10800
C500        C  0.00872336  0.64258549  0.41537485    -0.12400
C501        C  0.01548533  0.64231682  0.06811259    -0.10800
C502        C  0.99285494  0.64187624  0.06997380    -0.12400
C503        C  0.92633691  0.63628457  0.48479917    -0.10800
C504        C  0.92755687  0.63542440  0.01096250    -0.12400
C505        C  0.08673027  0.68625068  0.08426998    -0.10800
C506        C  0.08965506  0.70711439  0.09404412    -0.12400
C507        C  0.15840654  0.84186597  0.11896400    -0.10800
C508        C  0.14247137  0.82566887  0.11838492    -0.12400
C509        C  0.08593667  0.70290777  0.37996895    -0.10800
C510        C  0.08175083  0.68211410  0.38946727    -0.12400
C511        C  0.09545610  0.77681516  0.25246012    -0.10800
C512        C  0.09554871  0.77699093  0.22618309    -0.12400
C513        C  0.20643524  0.88683089  0.25678149    -0.10800
C514        C  0.20623999  0.88684737  0.23048602    -0.12400
C515        C  0.15761160  0.83906777  0.36392647    -0.10800
C516        C  0.14150738  0.82301660  0.36323385    -0.12400
C517        C  0.19918901  0.99401544  0.12719418    -0.10800
C518        C  0.19907988  0.97133082  0.12739425    -0.12400
C519        C  0.15846513  0.12481430  0.12054751    -0.10800
C520        C  0.14224067  0.14073136  0.12096882    -0.12400
C521        C  0.19833494  0.96998452  0.35830577    -0.10800
C522        C  0.19840555  0.99267089  0.35795697    -0.12400
C523        C  0.20658757  0.07731439  0.22828846    -0.10800
C524        C  0.20632771  0.07728927  0.25457551    -0.12400
C525        C  0.09557048  0.18702143  0.23139103    -0.10800
C526        C  0.09567191  0.18697661  0.25765218    -0.12400
C527        C  0.15860425  0.12236719  0.36549253    -0.10800
C528        C  0.14272027  0.13860464  0.36571001    -0.12400
C529        C  0.91599464  0.70358294  0.10356145    -0.10800
C530        C  0.92025287  0.68258091  0.09483674    -0.12400
C531        C  0.98936880  0.78470038  0.12598352    -0.10800
C532        C  0.01205213  0.78480858  0.12532021    -0.12400
C533        C  0.85974478  0.82373308  0.11880861    -0.10800
C534        C  0.84356749  0.83966957  0.11837200    -0.12400
C535        C  0.79536396  0.88628738  0.25352749    -0.10800
C536        C  0.79538901  0.88604599  0.22725273    -0.12400
C537        C  0.91153789  0.70665379  0.39079461    -0.10800
C538        C  0.91452929  0.68594556  0.40109163    -0.12400
C539        C  0.98877720  0.78286370  0.35570434    -0.10800
C540        C  0.01146330  0.78277397  0.35526850    -0.12400
C541        C  0.90477588  0.77591496  0.23030535    -0.10800
C542        C  0.90456314  0.77571859  0.25660948    -0.12400
C543        C  0.84147668  0.83987524  0.36455232    -0.10800
C544        C  0.85742048  0.82367974  0.36509554    -0.12400
C545        C  0.80224427  0.97035832  0.35735634    -0.10800
C546        C  0.80232745  0.99306259  0.35779142    -0.12400
C547        C  0.01222232  0.17962350  0.35815637    -0.10800
C548        C  0.98954056  0.17957294  0.35764214    -0.12400
C549        C  0.85974881  0.14006705  0.36526470    -0.10800
C550        C  0.84366283  0.12400728  0.36559951    -0.12400
C551        C  0.80195465  0.97004006  0.12658875    -0.10800
C552        C  0.80203833  0.99273488  0.12705312    -0.12400
C553        C  0.79589287  0.07674152  0.25702968    -0.10800
C554        C  0.79587027  0.07658656  0.23075509    -0.12400
C555        C  0.98908002  0.18035743  0.12816811    -0.10800
C556        C  0.01177721  0.18043588  0.12850534    -0.12400
C557        C  0.90469145  0.18799162  0.22837838    -0.10800
C558        C  0.90480433  0.18793879  0.25465902    -0.12400
C559        C  0.84225363  0.12289041  0.12037005    -0.10800
C560        C  0.85829209  0.13899955  0.12002565    -0.12400
C561        C  0.70508977  0.06789985  0.40016314    -0.10800
C562        C  0.72587256  0.07083733  0.39004465    -0.12400
C563        C  0.65491081  0.05448666  0.01021047    -0.10800
C564        C  0.65566056  0.05585723  0.48402811    -0.12400
C565        C  0.72238380  0.06684675  0.10374683    -0.10800
C566        C  0.70154537  0.06255693  0.09460458    -0.12400
C567        C  0.66125804  0.97379281  0.41465971    -0.10800
C568        C  0.66172740  0.99642586  0.41654308    -0.12400
C569        C  0.70099721  0.90072985  0.38958897    -0.10800
C570        C  0.72185871  0.89645381  0.38039535    -0.12400
C571        C  0.66185445  0.96694895  0.06852704    -0.10800
C572        C  0.66146547  0.98958948  0.07028740    -0.12400
C573        C  0.65469522  0.90907528  0.47454657    -0.10800
C574        C  0.65544984  0.90781475  0.00073567    -0.12400
C575        C  0.72533041  0.89218643  0.09472446    -0.10800
C576        C  0.70460769  0.89515546  0.08455528    -0.12400
C577        C  0.29995010  0.06256839  0.39021343    -0.10800
C578        C  0.27900543  0.06662559  0.38117209    -0.12400
C579        C  0.34696308  0.05562700  0.47464537    -0.10800
C580        C  0.34629179  0.05700230  0.00081284    -0.12400
C581        C  0.27604257  0.07139649  0.09452625    -0.10800
C582        C  0.29679107  0.06840308  0.08440271    -0.12400
C583        C  0.33955360  0.96735183  0.41730496    -0.10800
C584        C  0.33999002  0.99000903  0.41568847    -0.12400
C585        C  0.29602145  0.89595104  0.40054844    -0.10800
C586        C  0.27528233  0.89292584  0.39045337    -0.12400
C587        C  0.34030454  0.97425135  0.06957332    -0.10800
C588        C  0.34000549  0.99690996  0.06779189    -0.12400
C589        C  0.34570065  0.90749408  0.48405709    -0.10800
C590        C  0.34659451  0.90893307  0.01020780    -0.12400
C591        C  0.30006934  0.90137334  0.09484490    -0.10800
C592        C  0.27915002  0.89718884  0.10394145    -0.12400
C593        C  0.08713390  0.27720446  0.40098390    -0.10800
C594        C  0.09006038  0.25643424  0.39093677    -0.12400
C595        C  0.07405077  0.32810294  0.01035057    -0.10800
C596        C  0.07541271  0.32727524  0.48416711    -0.12400
C597        C  0.08169934  0.28159448  0.09529937    -0.10800
C598        C  0.08586103  0.26071790  0.10454679    -0.12400
C599        C  0.99310557  0.32129254  0.41556378    -0.10800
C600        C  0.01574425  0.32076988  0.41719506    -0.12400
C601        C  0.91620616  0.26002446  0.38215015    -0.10800
C602        C  0.92044909  0.28090253  0.39123755    -0.12400
C603        C  0.00895169  0.32157910  0.07039347    -0.10800
C604        C  0.98629437  0.32108895  0.06884603    -0.12400
C605        C  0.92683377  0.32748887  0.00149287    -0.10800
C606        C  0.92808597  0.32815831  0.47531229    -0.12400
C607        C  0.91464965  0.27765409  0.08484348    -0.10800
C608        C  0.91168494  0.25686518  0.09494637    -0.12400
C609        C  0.09010034  0.37037006  0.38965674    -0.16000
C610        C  0.09328965  0.38949853  0.37595935     0.08000
C611        C  0.09225728  0.41215440  0.35989340     0.09900
C612        C  0.08759338  0.43127763  0.34678773    -0.16900
C613        C  0.07968859  0.52451539  0.34384717    -0.16000
C614        C  0.08121206  0.54509613  0.35486787     0.08000
C615        C  0.08086910  0.56874465  0.36904156     0.09900
C616        C  0.07814666  0.58848967  0.38168473    -0.16900
C617        C  0.07461019  0.48047775  0.25570106    -0.10800
C618        C  0.07463827  0.48355767  0.22966902    -0.12400
C619        C  0.08036279  0.43914216  0.14173939    -0.16000
C620        C  0.08197579  0.41857254  0.13069510     0.08000
C621        C  0.08163510  0.39494088  0.11646388     0.09900
C622        C  0.07883197  0.37523439  0.10375304    -0.16900
C623        C  0.08765375  0.53237947  0.13824062    -0.16000
C624        C  0.09233317  0.55140509  0.12492886     0.08000
C625        C  0.09337994  0.57394079  0.10864065     0.09900
C626        C  0.09013529  0.59302423  0.09490107    -0.16900
C627        C  0.01178359  0.47983311  0.32024756    -0.10800
C628        C  0.98938083  0.48336624  0.32032046    -0.12400
C629        C  0.92145836  0.43859434  0.34382400    -0.16000
C630        C  0.91994978  0.41789066  0.35458970     0.08000
C631        C  0.92034721  0.39414372  0.36858693     0.09900
C632        C  0.92318263  0.37443062  0.38130147    -0.16900
C633        C  0.91383457  0.53179732  0.34808469    -0.16000
C634        C  0.90937085  0.55081466  0.36144868     0.08000
C635        C  0.90856939  0.57344296  0.37752396     0.09900
C636        C  0.91187698  0.59264144  0.39098172    -0.16900
C637        C  0.01201794  0.48347883  0.16528847    -0.10800
C638        C  0.98959793  0.47996715  0.16552404    -0.12400
C639        C  0.92630156  0.48343912  0.25620605    -0.10800
C640        C  0.92640402  0.48027128  0.23018080    -0.12400
C641        C  0.91376390  0.43161200  0.13860027    -0.16000
C642        C  0.90923105  0.41260017  0.12526071     0.08000
C643        C  0.90844284  0.39001813  0.10909688     0.09900
C644        C  0.91183001  0.37089689  0.09551321    -0.16900
C645        C  0.92168109  0.52480028  0.14248621    -0.16000
C646        C  0.92007232  0.54547677  0.13167741     0.08000
C647        C  0.92027297  0.56921960  0.11765664     0.09900
C648        C  0.92294748  0.58896084  0.10493200    -0.16900
C649        C  0.45781379  0.06073242  0.34324347    -0.16000
C650        C  0.43713524  0.06223288  0.35408314     0.08000
C651        C  0.41337330  0.06198815  0.36808717     0.09900
C652        C  0.39359473  0.05940658  0.38077207    -0.16900
C653        C  0.55105585  0.06846476  0.34703416    -0.16000
C654        C  0.57006131  0.07299772  0.36039904     0.08000
C655        C  0.59262573  0.07396400  0.37660608     0.09900
C656        C  0.61177427  0.07078034  0.39021413    -0.16900
C657        C  0.50241615  0.05619759  0.25536811    -0.10800
C658        C  0.49929782  0.05622200  0.22933750    -0.12400
C659        C  0.39001304  0.07116095  0.09477243    -0.16000
C660        C  0.40916801  0.07440743  0.10832023     0.08000
C661        C  0.43178309  0.07347813  0.12439330     0.09900
C662        C  0.45081363  0.06890483  0.13766841    -0.16900
C663        C  0.60804334  0.05954542  0.10388531    -0.16000
C664        C  0.58834102  0.06242146  0.11660892     0.08000
C665        C  0.56465067  0.06283852  0.13073564     0.09900
C666        C  0.54399875  0.06129382  0.14162555    -0.16900
C667        C  0.49880795  0.97053669  0.31971159    -0.10800
C668        C  0.50239860  0.99294018  0.31960959    -0.12400
C669        C  0.45021210  0.89488657  0.34722910    -0.16000
C670        C  0.43111608  0.89037877  0.36048034     0.08000
C671        C  0.40843152  0.88959842  0.37650475     0.09900
C672        C  0.38924985  0.89297677  0.39001152    -0.16900
C673        C  0.60738682  0.90410219  0.38127812    -0.16000
C674        C  0.58765467  0.90135453  0.36861579     0.08000
C675        C  0.56400698  0.90103627  0.35443511     0.09900
C676        C  0.54341601  0.90258734  0.34344686    -0.16900
C677        C  0.49917659  0.99320342  0.16504790    -0.10800
C678        C  0.50252453  0.97076171  0.16505809    -0.12400
C679        C  0.50200565  0.90770435  0.22951882    -0.10800
C680        C  0.49888879  0.90761544  0.25555902    -0.12400
C681        C  0.39364954  0.90443230  0.10367155    -0.16000
C682        C  0.41331878  0.90169803  0.11646024     0.08000
C683        C  0.43692092  0.90137773  0.13072868     0.09900
C684        C  0.45750176  0.90289451  0.14174078    -0.16900
C685        C  0.61133498  0.89274314  0.09450389    -0.16000
C686        C  0.59218477  0.88947409  0.10813482     0.08000
C687        C  0.56963550  0.89034967  0.12441689     0.09900
C688        C  0.55064788  0.89489888  0.13783843    -0.16900
C689        C  0.52831044  0.90501669  0.65261473     0.89000
C690        C  0.50326854  0.89612756  0.63959659    -0.51300
C691        C  0.48270458  0.90643651  0.65282892     0.11900
C692        C  0.48907370  0.92451799  0.67794803     0.22800
C693        C  0.52739431  0.93385914  0.65090826    -0.52000
C694        C  0.50687513  0.94400233  0.66421182     0.12000
C695        C  0.52667766  0.89886833  0.68521295    -0.51500
C696        C  0.50610605  0.90919757  0.69847325     0.12500
H697        H  0.50194289  0.88360429  0.62097722     0.17100
H698        H  0.47234340  0.93296960  0.68871645     0.02800
H699        H  0.54167272  0.94522500  0.64016652     0.17400
H700        H  0.54079762  0.88803481  0.69685611     0.17200
C701        C  0.47262002  0.90492689  0.83247600     0.89000
C702        C  0.49760575  0.89598529  0.84559121    -0.51300
C703        C  0.51823155  0.90619636  0.83232118     0.11900
C704        C  0.51196923  0.92424791  0.80708548     0.22800
C705        C  0.47366576  0.93377424  0.83401488    -0.52000
C706        C  0.49425646  0.94381360  0.82068200     0.12000
C707        C  0.47425514  0.89871775  0.79991629    -0.51500
C708        C  0.49487407  0.90897296  0.78662099     0.12500
H709        H  0.49885332  0.88349862  0.86429051     0.17100
H710        H  0.52874911  0.93262696  0.79628709     0.02800
H711        H  0.45943619  0.94521009  0.84467415     0.17400
H712        H  0.46006881  0.88795435  0.78830472     0.17200
C713        C  0.47316306  0.05884978  0.65242853     0.89000
C714        C  0.49820039  0.06782738  0.63936291    -0.51300
C715        C  0.51876884  0.05760745  0.65264380     0.11900
C716        C  0.51241133  0.03949898  0.67781751     0.22800
C717        C  0.47418774  0.03001057  0.65082308    -0.52000
C718        C  0.49471900  0.01994596  0.66414820     0.12000
C719        C  0.47470308  0.06501024  0.68500442    -0.51500
C720        C  0.49527892  0.05475617  0.69829418     0.12500
H721        H  0.49952490  0.08036141  0.62070720     0.17100
H722        H  0.52914925  0.03111265  0.68861114     0.02800
H723        H  0.45997661  0.01859042  0.64012325     0.17400
H724        H  0.46051205  0.07578893  0.69661767     0.17200
C725        C  0.52866397  0.05849014  0.83224309     0.89000
C726        C  0.50364083  0.06736914  0.84540529    -0.51300
C727        C  0.48303811  0.05719950  0.83213456     0.11900
C728        C  0.48934668  0.03926285  0.80686142     0.22800
C729        C  0.52761013  0.02963897  0.83372049    -0.52000
C730        C  0.50703316  0.01965005  0.82041365     0.12000
C731        C  0.52706626  0.06483535  0.79969197    -0.51500
C732        C  0.50645633  0.05463961  0.78640803     0.12500
H733        H  0.50235380  0.07977948  0.86413263     0.17100
H734        H  0.47258216  0.03092332  0.79607404     0.02800
H735        H  0.54180022  0.01816119  0.84438731     0.17400
H736        H  0.54125247  0.07566933  0.78808448     0.17200
C737        C  0.92388209  0.45395133  0.65333722     0.89000
C738        C  0.91501904  0.47900224  0.64025115    -0.51300
C739        C  0.92530960  0.49956242  0.65347671     0.11900
C740        C  0.94336094  0.49319242  0.67861927     0.22800
C741        C  0.95272279  0.45490480  0.65166576    -0.52000
C742        C  0.96285541  0.47543999  0.66492004     0.12000
C743        C  0.91769100  0.45555351  0.68592402    -0.51500
C744        C  0.92800555  0.47613125  0.69915724     0.12500
H745        H  0.90249609  0.48034051  0.62163136     0.17100
H746        H  0.95179583  0.50993319  0.68935986     0.02800
H747        H  0.96408910  0.44067988  0.64090513     0.17400
H748        H  0.90681337  0.44142601  0.69757252     0.17200
C749        C  0.92382074  0.50946852  0.83319954     0.89000
C750        C  0.91490422  0.48439977  0.84625862    -0.51300
C751        C  0.92508236  0.46385490  0.83287750     0.11900
C752        C  0.94308648  0.47025611  0.80763796     0.22800
C753        C  0.95266138  0.50844675  0.83466160    -0.52000
C754        C  0.96267117  0.48792435  0.82125451     0.12000
C755        C  0.91754436  0.50797147  0.80063982    -0.51500
C756        C  0.92776889  0.48741238  0.78726194     0.12500
H757        H  0.90244639  0.48303679  0.86497478     0.17100
H758        H  0.95144102  0.45352970  0.79677743     0.02800
H759        H  0.96411593  0.52262818  0.84536203     0.17400
H760        H  0.90673906  0.52218345  0.78910110     0.17200
C761        C  0.07759320  0.50991693  0.65286418     0.89000
C762        C  0.08676384  0.48499397  0.63979261    -0.51300
C763        C  0.07657995  0.46428876  0.65292572     0.11900
C764        C  0.05833070  0.47041870  0.67801838     0.22800
C765        C  0.04876408  0.50871464  0.65107652    -0.52000
C766        C  0.03874729  0.48804862  0.66429844     0.12000
C767        C  0.08359572  0.50828192  0.68546099    -0.51500
C768        C  0.07337883  0.48758854  0.69862651     0.12500
H769        H  0.09937882  0.48384341  0.62120284     0.17100
H770        H  0.04998774  0.45357812  0.68872850     0.02800
H771        H  0.03732052  0.52293404  0.64040645     0.17400
H772        H  0.09421091  0.52251010  0.69718688     0.17200
C773        C  0.07745773  0.45375608  0.83232696     0.89000
C774        C  0.08636725  0.47869421  0.84561574    -0.51300
C775        C  0.07608525  0.49937436  0.83258586     0.11900
C776        C  0.05800367  0.49321561  0.80740791     0.22800
C777        C  0.04861713  0.45468656  0.83404447    -0.52000
C778        C  0.03850887  0.47534307  0.82097103     0.12000
C779        C  0.08360340  0.45563579  0.79976253    -0.51500
C780        C  0.07328000  0.47630253  0.78671831     0.12500
H781        H  0.09889845  0.47986445  0.86423895     0.17100
H782        H  0.04957433  0.51003792  0.79680399     0.02800
H783        H  0.03723629  0.44034032  0.84464667     0.17400
H784        H  0.09438097  0.44156956  0.78796039     0.17200
C785        C  0.92122973  0.34868014  0.57992205     0.89000
C786        C  0.91677226  0.34936793  0.54700110    -0.51300
C787        C  0.92661945  0.32908211  0.53278790     0.11900
C788        C  0.93990966  0.30994442  0.55273057     0.22800
C789        C  0.91027785  0.32349397  0.59028743    -0.52000
C790        C  0.92012685  0.30318679  0.57603676     0.12000
C791        C  0.94978340  0.34593233  0.58335152    -0.51500
C792        C  0.95955219  0.32571318  0.56913162     0.12500
H793        H  0.90748896  0.36485584  0.53584200     0.17100
H794        H  0.94800815  0.29347507  0.54112717     0.02800
H795        H  0.89673386  0.32180247  0.60793469     0.17400
H796        H  0.96134496  0.35906020  0.59560780     0.17200
C797        C  0.93051363  0.35154289  0.89724469     0.89000
C798        C  0.95910159  0.34771690  0.89698957    -0.51300
C799        C  0.96676708  0.32687319  0.91180970     0.11900
C800        C  0.94521547  0.31160959  0.92547171     0.22800
C801        C  0.91953820  0.32697634  0.88512746    -0.52000
C802        C  0.92726691  0.30607240  0.90000931     0.12000
C803        C  0.92322401  0.35177931  0.92957602    -0.51500
C804        C  0.93099820  0.33082095  0.94428406     0.12500
H805        H  0.97216673  0.36062601  0.88654984     0.17100
H806        H  0.95160243  0.29462015  0.93753988     0.02800
H807        H  0.90722824  0.32613340  0.86629603     0.17400
H808        H  0.91348171  0.36733025  0.94001990     0.17200
C809        C  0.07154430  0.35218303  0.58810449     0.89000
C810        C  0.04296775  0.34824042  0.58847045    -0.51300
C811        C  0.03531641  0.32724302  0.57398374     0.11900
C812        C  0.05690171  0.31193363  0.56050939     0.22800
C813        C  0.08259768  0.32776012  0.60057200    -0.52000
C814        C  0.07489458  0.30668177  0.58605037     0.12000
C815        C  0.07878646  0.35215966  0.55575153    -0.51500
C816        C  0.07106191  0.33103682  0.54136068     0.12500
H817        H  0.02988814  0.36119146  0.59874787     0.17100
H818        H  0.05054011  0.29481380  0.54871751     0.02800
H819        H  0.09491515  0.32713736  0.61941202     0.17400
H820        H  0.08848641  0.36765056  0.54506696     0.17200
C821        C  0.08078806  0.34820908  0.90550228     0.89000
C822        C  0.08550179  0.34893207  0.93838746    -0.51300
C823        C  0.07565277  0.32870525  0.95282832     0.11900
C824        C  0.06215541  0.30957488  0.93310106     0.22800
C825        C  0.09154910  0.32298859  0.89515401    -0.52000
C826        C  0.08174312  0.30274232  0.90964031     0.12000
C827        C  0.05220990  0.34554044  0.90237925    -0.51500
C828        C  0.04247301  0.32537336  0.91679434     0.12500
H829        H  0.09488435  0.36443989  0.94936846     0.17100
H830        H  0.05406620  0.29314127  0.94485565     0.02800
H831        H  0.10494697  0.32122990  0.87737828     0.17400
H832        H  0.04061225  0.35865960  0.89013500     0.17200
C833        C  0.37064713  0.91166921  0.58792251     0.89000
C834        C  0.36673483  0.94024890  0.58812564    -0.51300
C835        C  0.34579365  0.94787878  0.57352571     0.11900
C836        C  0.33047803  0.92626113  0.56015424     0.22800
C837        C  0.34620020  0.90060595  0.60037558    -0.52000
C838        C  0.32516852  0.90828014  0.58575018     0.12000
C839        C  0.37067944  0.90437752  0.55560860    -0.51500
C840        C  0.34958019  0.91206550  0.54115081     0.10100
H841        H  0.37970560  0.95335389  0.59831844     0.17100
H842        H  0.31339209  0.93259454  0.54827822     0.02800
H843        H  0.34553104  0.88826999  0.61924299     0.17400
H844        H  0.38615962  0.89464226  0.54501052     0.17200
C845        C  0.36700925  0.90231475  0.90562368     0.89000
C846        C  0.36748951  0.89742835  0.93848031    -0.51300
C847        C  0.34720352  0.90723640  0.95275690     0.11900
C848        C  0.32823636  0.92085207  0.93292302     0.22800
C849        C  0.34183833  0.89163524  0.89500200    -0.52000
C850        C  0.32151923  0.90138903  0.90933485     0.12000
C851        C  0.36443668  0.93093400  0.90258504    -0.51500
C852        C  0.34418126  0.94061681  0.91684942     0.12500
H853        H  0.38291287  0.88800960  0.94958127     0.17100
H854        H  0.31174837  0.92889126  0.94456828     0.02800
H855        H  0.34017336  0.87829167  0.87719741     0.17400
H856        H  0.37766540  0.94258272  0.89050989     0.17200
C857        C  0.36775563  0.06189900  0.57917923     0.89000
C858        C  0.36826857  0.06679612  0.54631823    -0.51300
C859        C  0.34793987  0.05704820  0.53210203     0.11900
C860        C  0.32893388  0.04344157  0.55198453     0.22800
C861        C  0.34261395  0.07263521  0.58986206    -0.52000
C862        C  0.32227382  0.06292361  0.57557457     0.12000
C863        C  0.36507758  0.03328812  0.58222883    -0.51500
C864        C  0.34479691  0.02363814  0.56803567     0.12500
H865        H  0.38369608  0.07623935  0.53518542     0.17100
H866        H  0.31241876  0.03544152  0.54038808     0.02800
H867        H  0.34098025  0.08598507  0.60766936     0.17400
H868        H  0.37823465  0.02161988  0.59431944     0.17200
C869        C  0.37058062  0.05236924  0.89672257     0.89000
C870        C  0.36658421  0.02380314  0.89686075    -0.51300
C871        C  0.34567193  0.01633118  0.91170082     0.11900
C872        C  0.33047709  0.03806782  0.92499622     0.22800
C873        C  0.34610256  0.06335995  0.88434790    -0.52000
C874        C  0.32509789  0.05582912  0.89924103     0.12000
C875        C  0.37075987  0.05992420  0.92894760    -0.51500
C876        C  0.34970520  0.05238922  0.94367685     0.12500
H877        H  0.37944119  0.01059564  0.88663722     0.17100
H878        H  0.31342805  0.03184340  0.93708923     0.02800
H879        H  0.34538974  0.07550268  0.86532177     0.17400
H880        H  0.38633209  0.06967891  0.93931254     0.17200
C881        C  0.63370930  0.90203442  0.57904375     0.89000
C882        C  0.63325518  0.89765722  0.54609932    -0.51300
C883        C  0.65370564  0.90744671  0.53204736     0.11900
C884        C  0.67277264  0.92057922  0.55219024     0.22800
C885        C  0.65872818  0.89093165  0.58956562    -0.52000
C886        C  0.67920386  0.90071018  0.57549820     0.12000
C887        C  0.63661448  0.93056248  0.58258344    -0.51500
C888        C  0.65700932  0.94025281  0.56855860     0.12500
H889        H  0.61778483  0.88850258  0.53480292     0.17100
H890        H  0.68938686  0.92863053  0.54074869     0.02800
H891        H  0.66019091  0.87736603  0.60721145     0.17400
H892        H  0.62348474  0.94216530  0.59480805     0.17200
C893        C  0.63049981  0.91131982  0.89683547     0.89000
C894        C  0.63457487  0.93988371  0.89636267    -0.51300
C895        C  0.65562515  0.94746260  0.91079136     0.11900
C896        C  0.67086371  0.92584472  0.92426905     0.22800
C897        C  0.65483503  0.90010793  0.88434545    -0.52000
C898        C  0.67596938  0.90774518  0.89879327     0.12000
C899        C  0.63055778  0.90417338  0.92922338    -0.51500
C900        C  0.65174383  0.91185251  0.94352154     0.12500
H901        H  0.62162442  0.95301086  0.88616859     0.17100
H902        H  0.68803137  0.93216179  0.93599646     0.02800
H903        H  0.65536014  0.88771304  0.86556690     0.17400
H904        H  0.61503306  0.89460897  0.94000380     0.17200
C905        C  0.63102045  0.05219427  0.58812324     0.89000
C906        C  0.63494511  0.02361625  0.58860234    -0.51300
C907        C  0.65588944  0.01594288  0.57398588     0.11900
C908        C  0.67115835  0.03748726  0.56029450     0.22800
C909        C  0.65546656  0.06331946  0.60034886    -0.52000
C910        C  0.67647254  0.05559158  0.58568220     0.12000
C911        C  0.63094874  0.05932134  0.55573431    -0.51500
C912        C  0.65201929  0.05155641  0.54123071     0.12500
H913        H  0.62200319  0.01055385  0.59899805     0.17100
H914        H  0.68823642  0.03110194  0.54840727     0.02800
H915        H  0.65615809  0.07573441  0.61910222     0.17400
H916        H  0.61544680  0.06899360  0.54511982     0.17200
C917        C  0.63408371  0.06147041  0.90571814     0.89000
C918        C  0.63364780  0.06606905  0.93862924    -0.51300
C919        C  0.65399681  0.05620181  0.95271876     0.11900
C920        C  0.67296169  0.04279878  0.93264891     0.22800
C921        C  0.65922321  0.07231028  0.89504653    -0.52000
C922        C  0.67960183  0.06247494  0.90917135     0.12000
C923        C  0.63673807  0.03290028  0.90243096    -0.51500
C924        C  0.65703576  0.02314430  0.91648001     0.12500
H925        H  0.61823493  0.07538336  0.94988774     0.17100
H926        H  0.68949002  0.03469012  0.94412438     0.02800
H927        H  0.66082555  0.08577631  0.87730424     0.17400
H928        H  0.62353368  0.02132083  0.89030359     0.17200
In929      In  0.91336753  0.19017358  0.63974044     1.36900
C930        C  0.96241089  0.18328396  0.63189980     0.80000
O931        O  0.91236963  0.21221709  0.59759540    -0.58400
O932        O  0.90916322  0.23212326  0.63745902    -0.49300
C933        C  0.87775064  0.15737010  0.62470106     0.72700
O934        O  0.90066778  0.15150925  0.62605134    -0.44200
C935        C  0.90693329  0.18837896  0.69717974     0.77400
O936        O  0.94628281  0.17215752  0.61643099    -0.56000
O937        O  0.89709497  0.20524463  0.68159565    -0.46100
O938        O  0.95352259  0.19749680  0.65121941    -0.52500
C939        C  0.91067024  0.23321757  0.61017017     0.87600
O940        O  0.87305875  0.18019850  0.62962570    -0.54400
O941        O  0.91960573  0.17223317  0.68348532    -0.57600
In942      In  0.79167423  0.06780844  0.64234011     1.36900
C943        C  0.79913010  0.01922531  0.63211338     0.80000
O944        O  0.80985467  0.06032042  0.68566280    -0.58400
O945        O  0.77869973  0.08541199  0.68430864    -0.49300
C946        C  0.82407311  0.10338776  0.62585878     0.72700
O947        O  0.83018712  0.08058627  0.62814958    -0.44200
C948        C  0.74676194  0.06913548  0.61694298     0.77400
O949        O  0.80736353  0.03599106  0.61511019    -0.56000
O950        O  0.74953218  0.06961349  0.64410601    -0.46100
O951        O  0.78769869  0.02727813  0.65419804    -0.52500
C952        C  0.79495406  0.07429260  0.69959330     0.87600
O953        O  0.80118432  0.10796335  0.63060355    -0.54400
O954        O  0.76691670  0.06947635  0.60247537    -0.57600
In955      In  0.91454476  0.19087631  0.84303892     1.36900
C956        C  0.96307529  0.18276379  0.85274982     0.80000
O957        O  0.92178885  0.17357525  0.79920310    -0.58400
O958        O  0.89602301  0.20410832  0.80164555    -0.49300
C959        C  0.87918410  0.15829742  0.85968790     0.72700
O960        O  0.90192012  0.15216964  0.85673799    -0.44200
C961        C  0.91379112  0.23570161  0.86880267     0.77400
O962        O  0.94631440  0.17436095  0.86963819    -0.56000
O963        O  0.91359445  0.23305780  0.84162540    -0.46100
O964        O  0.95504310  0.19469969  0.83101302    -0.52500
C965        C  0.90734346  0.18838789  0.78581796     0.87600
O966        O  0.87457811  0.18126702  0.85548790    -0.54400
O967        O  0.91295244  0.21547359  0.88312281    -0.57600
In968      In  0.79273847  0.06877705  0.84569847     1.36900
C969        C  0.79941998  0.01973338  0.85394199     0.80000
O970        O  0.77051256  0.07012617  0.88767468    -0.58400
O971        O  0.75080199  0.07314721  0.84766209    -0.49300
C972        C  0.82533079  0.10453043  0.86084652     0.72700
O973        O  0.83111703  0.08156324  0.86024862    -0.44200
C974        C  0.79520486  0.07474374  0.78823421     0.77400
O975        O  0.81085131  0.03591780  0.86903577    -0.56000
O976        O  0.77813312  0.08464628  0.80344914    -0.46100
O977        O  0.78498029  0.02856515  0.83481360    -0.52500
C978        C  0.74957982  0.07178351  0.87495418     0.87600
O979        O  0.80265287  0.10922713  0.85509893    -0.54400
O980        O  0.81122957  0.06223009  0.80230418    -0.57600
In981      In  0.91297037  0.77303053  0.84531675     1.36900
C982        C  0.96209116  0.77998899  0.85230750     0.80000
O983        O  0.91228390  0.75128045  0.88769697    -0.58400
O984        O  0.90860169  0.73110276  0.84809184    -0.49300
C985        C  0.87698330  0.80538108  0.86053800     0.72700
O986        O  0.89994603  0.81123471  0.86027167    -0.44200
C987        C  0.90665165  0.77513097  0.78785051     0.77400
O988        O  0.94612464  0.79114644  0.86798526    -0.56000
O989        O  0.89807733  0.75733588  0.80311449    -0.46100
O990        O  0.95301452  0.76576456  0.83314743    -0.52500
C991        C  0.91040866  0.73019390  0.87535841     0.87600
O992        O  0.87240343  0.78271234  0.85453645    -0.54400
O993        O  0.91797038  0.79204186  0.80189526    -0.57600
In994      In  0.79141228  0.89529617  0.84200976     1.36900
C995        C  0.79908815  0.94387412  0.85231535     0.80000
O996        O  0.80914025  0.90309172  0.79839966    -0.58400
O997        O  0.77858475  0.87729311  0.80019440    -0.49300
C998        C  0.82356963  0.85957547  0.85882312     0.72700
O999        O  0.83019185  0.88200386  0.85439914    -0.44200
C1000       C  0.74636010  0.89414381  0.86734932     0.77400
O1001       O  0.80806726  0.92701939  0.86864907    -0.56000
O1002       O  0.74928398  0.89238464  0.84025682    -0.46100
O1003       O  0.78673354  0.93591573  0.83088412    -0.52500
C1004       C  0.79450521  0.88871912  0.78468383     0.87600
O1005       O  0.80035467  0.85549279  0.85602377    -0.54400
O1006       O  0.76645846  0.89505079  0.88183848    -0.57600
In1007     In  0.91447814  0.77317868  0.64169473     1.36900
C1008       C  0.96295085  0.78130617  0.63120682     0.80000
O1009       O  0.92211081  0.79010804  0.68572826    -0.58400
O1010       O  0.89568246  0.76018640  0.68317960    -0.49300
C1011       C  0.87923539  0.80567292  0.62464255     0.72700
O1012       O  0.90160523  0.81214922  0.62955116    -0.44200
C1013       C  0.91357982  0.72811385  0.61644590     0.77400
O1014       O  0.94600715  0.79051925  0.61522709    -0.56000
O1015       O  0.91215689  0.73105228  0.64354280    -0.46100
O1016       O  0.95514131  0.76846628  0.65239928    -0.52500
C1017       C  0.90733873  0.77556336  0.69909590     0.87600
O1018       O  0.87496951  0.78244781  0.62713024    -0.54400
O1019       O  0.91402198  0.74821573  0.60184736    -0.57600
In1020     In  0.79226343  0.89435502  0.63864931     1.36900
C1021       C  0.79896290  0.94338374  0.63039918     0.80000
O1022       O  0.76995391  0.89257273  0.59686179    -0.58400
O1023       O  0.75027484  0.89035100  0.63703799    -0.49300
C1024       C  0.82509987  0.85897838  0.62319588     0.72700
O1025       O  0.83078457  0.88196765  0.62416619    -0.44200
C1026       C  0.79474626  0.88808623  0.69605283     0.77400
O1027       O  0.81015370  0.92721667  0.61503543    -0.56000
O1028       O  0.77783036  0.87799524  0.68080262    -0.46100
O1029       O  0.78471312  0.93454588  0.64977052    -0.52500
C1030       C  0.74903023  0.89129000  0.60972724     0.87600
O1031       O  0.80239794  0.85408013  0.62871248    -0.54400
O1032       O  0.81063151  0.90088068  0.68203374    -0.57600
In1033     In  0.08778667  0.18989945  0.84623496     1.36900
C1034       C  0.03884417  0.18283136  0.85444425     0.80000
O1035       O  0.09046436  0.21180214  0.88830004    -0.58400
O1036       O  0.09103494  0.23190115  0.84834150    -0.49300
C1037       C  0.12342870  0.15711961  0.86098296     0.72700
O1038       O  0.10035973  0.15173337  0.86174177    -0.44200
C1039       C  0.09365388  0.18760036  0.78882989     0.77400
O1040       O  0.05507578  0.17126431  0.86933611    -0.56000
O1041       O  0.10377838  0.20451604  0.80404895    -0.46100
O1042       O  0.04757908  0.19766591  0.83560860    -0.52500
C1043       C  0.09092854  0.23286944  0.87567221     0.87600
O1044       O  0.12833839  0.17952930  0.85401016    -0.54400
O1045       O  0.08094793  0.17165111  0.80286879    -0.57600
In1046     In  0.20937068  0.06772138  0.84306746     1.36900
C1047       C  0.20164145  0.01914769  0.85307308     0.80000
O1048       O  0.19229160  0.06003725  0.79919588    -0.58400
O1049       O  0.22211255  0.08662314  0.80158709    -0.49300
C1050       C  0.17670826  0.10283939  0.85999583     0.72700
O1051       O  0.17027729  0.08049248  0.85483437    -0.44200
C1052       C  0.25446297  0.06882080  0.86824079     0.77400
O1053       O  0.19266930  0.03588333  0.86953656    -0.56000
O1054       O  0.25150254  0.07050699  0.84115403    -0.46100
O1055       O  0.21406881  0.02721895  0.83168745    -0.52500
C1056       C  0.20673048  0.07486512  0.78576717     0.87600
O1057       O  0.19996450  0.10707877  0.85800586    -0.54400
O1058       O  0.23437263  0.06795585  0.88282726    -0.57600
In1059     In  0.08694574  0.19112078  0.64297678     1.36900
C1060       C  0.03829841  0.18353597  0.63324186     0.80000
O1061       O  0.07909191  0.17320851  0.68641504    -0.58400
O1062       O  0.10475192  0.20392458  0.68486058    -0.49300
C1063       C  0.12261629  0.15878268  0.62643797     0.72700
O1064       O  0.09995045  0.15244134  0.62957222    -0.44200
C1065       C  0.08812990  0.23620614  0.61761098     0.77400
O1066       O  0.05496821  0.17510830  0.61627139    -0.56000
O1067       O  0.08987095  0.23327817  0.64469841    -0.46100
O1068       O  0.04647805  0.19531076  0.65499755    -0.52500
C1069       C  0.09332308  0.18790583  0.70024323     0.87600
O1070       O  0.12697138  0.18183145  0.63030446    -0.54400
O1071       O  0.08723054  0.21609829  0.60313881    -0.57600
In1072     In  0.20954624  0.06946871  0.63957062     1.36900
C1073       C  0.20234810  0.02059576  0.63120435     0.80000
O1074       O  0.23143038  0.07134563  0.59734771    -0.58400
O1075       O  0.25151801  0.07316989  0.63718540    -0.49300
C1076       C  0.17690755  0.10536946  0.62499261     0.72700
O1077       O  0.17132631  0.08233890  0.62457877    -0.44200
C1078       C  0.20733673  0.07519061  0.69708139     0.77400
O1079       O  0.19103590  0.03694679  0.61621389    -0.56000
O1080       O  0.22442030  0.08507092  0.68180137    -0.46100
O1081       O  0.21691818  0.02917140  0.65033799    -0.52500
C1082       C  0.25248597  0.07237791  0.60986436     0.87600
O1083       O  0.19944863  0.11009598  0.63143291    -0.54400
O1084       O  0.19125948  0.06270088  0.68306554    -0.57600
In1085     In  0.20879335  0.89459792  0.84556315     1.36900
C1086       C  0.20149060  0.94340957  0.85424278     0.80000
O1087       O  0.23065684  0.89231066  0.88772245    -0.58400
O1088       O  0.25080718  0.89156262  0.84781014    -0.49300
C1089       C  0.17603254  0.85861479  0.85976267     0.72700
O1090       O  0.17031626  0.88161255  0.85976626    -0.44200
C1091       C  0.20697740  0.88892268  0.78800890     0.77400
O1092       O  0.19032937  0.92698000  0.86934854    -0.56000
O1093       O  0.22361112  0.87855678  0.80345259    -0.46100
O1094       O  0.21593902  0.93492858  0.83490088    -0.52500
C1095       C  0.25174151  0.89186410  0.87514487     0.87600
O1096       O  0.19873358  0.85399101  0.85396568    -0.54400
O1097       O  0.19114064  0.90184738  0.80188676    -0.57600
In1098     In  0.08665479  0.77226882  0.84090765     1.36900
C1099       C  0.03798385  0.77972719  0.85056712     0.80000
O1100       O  0.07906657  0.79051153  0.79760476    -0.58400
O1101       O  0.10448666  0.75962591  0.79889738    -0.49300
C1102       C  0.12209415  0.80478530  0.85751898     0.72700
O1103       O  0.09921750  0.81071785  0.85570234    -0.44200
C1104       C  0.08807254  0.72730013  0.86658010     0.77400
O1105       O  0.05457042  0.78807497  0.86764508    -0.56000
O1106       O  0.08845264  0.73005000  0.83940209    -0.46100
O1107       O  0.04625092  0.76808919  0.82874627    -0.52500
C1108       C  0.09319377  0.77579337  0.78363533     0.87600
O1109       O  0.12681947  0.78203378  0.85216588    -0.54400
O1110       O  0.08839156  0.74749733  0.88090644    -0.57600
In1111     In  0.20941471  0.89617131  0.64195308     1.36900
C1112       C  0.20202954  0.94481400  0.63214181     0.80000
O1113       O  0.19223947  0.90396077  0.68580586    -0.58400
O1114       O  0.22199620  0.87731686  0.68345597    -0.49300
C1115       C  0.17661946  0.86121880  0.62483761     0.72700
O1116       O  0.17043571  0.88378293  0.62906137    -0.44200
C1117       C  0.25459420  0.89496915  0.61687338     0.77400
O1118       O  0.19368480  0.92821862  0.61507190    -0.56000
O1119       O  0.25154522  0.89367995  0.64397538    -0.46100
O1120       O  0.21360140  0.93656419  0.65401366    -0.52500
C1121       C  0.20664888  0.88916652  0.69926894     0.87600
O1122       O  0.19969138  0.85662978  0.62803534    -0.54400
O1123       O  0.23456223  0.89546702  0.60224842    -0.57600
In1124     In  0.08750977  0.77424679  0.63758606     1.36900
C1125       C  0.03865128  0.78160867  0.62915501     0.80000
O1126       O  0.09080265  0.75177137  0.59593375    -0.58400
O1127       O  0.08987623  0.73217923  0.63620208    -0.49300
C1128       C  0.12316301  0.80709890  0.62287880     0.72700
O1129       O  0.10009428  0.81244411  0.62206915    -0.44200
C1130       C  0.09352110  0.77648144  0.69498337     0.77400
O1131       O  0.05501112  0.79218827  0.61341434    -0.56000
O1132       O  0.10365426  0.75963869  0.67964226    -0.46100
O1133       O  0.04722714  0.76767793  0.64893143    -0.52500
C1134       C  0.09050675  0.73086195  0.60891099     0.87600
O1135       O  0.12805752  0.78468622  0.62979927    -0.54400
O1136       O  0.08077753  0.79243806  0.68105192    -0.57600
C1137       C  0.93023169  0.61186917  0.58894953     0.89000
C1138       C  0.91938541  0.63646689  0.60118175    -0.51300
C1139       C  0.92712242  0.65736596  0.58622918     0.11900
C1140       C  0.94496171  0.65178618  0.56062939     0.22800
C1141       C  0.92280567  0.61167177  0.55667629    -0.52000
C1142       C  0.93058818  0.63264027  0.54193766     0.12000
C1143       C  0.95882727  0.61562642  0.58894590    -0.51500
C1144       C  0.96650980  0.63644630  0.57406601     0.12500
H1145       H  0.90710271  0.63732399  0.62007436     0.17100
H1146       H  0.95136471  0.66876071  0.54850805     0.02800
H1147       H  0.91296609  0.59615701  0.54629869     0.17400
H1148       H  0.97189273  0.60266117  0.59922613     0.17200
C1149       C  0.92114660  0.61495735  0.90646970     0.89000
C1150       C  0.91649244  0.61437538  0.93935278    -0.51300
C1151       C  0.92622553  0.63472704  0.95351475     0.11900
C1152       C  0.93960958  0.65385168  0.93354622     0.22800
C1153       C  0.91021753  0.64007367  0.89592665    -0.52000
C1154       C  0.91995653  0.66046737  0.91011272     0.12000
C1155       C  0.94971252  0.61777944  0.90314628    -0.51500
C1156       C  0.95936903  0.63809664  0.91727312     0.12500
H1157       H  0.90719016  0.59888419  0.95054362     0.17100
H1158       H  0.94761569  0.67038749  0.94510502     0.02800
H1159       H  0.89678841  0.64165771  0.87819936     0.17400
H1160       H  0.96135302  0.60468102  0.89093205     0.17200
C1161       C  0.08068427  0.61521200  0.57928221     0.89000
C1162       C  0.08546900  0.61482073  0.54638856    -0.51300
C1163       C  0.07549379  0.63509439  0.53221118     0.11900
C1164       C  0.06181563  0.65391809  0.55215772     0.22800
C1165       C  0.09124062  0.64043948  0.58991109    -0.52000
C1166       C  0.08131943  0.66071438  0.57564684     0.12000
C1167       C  0.05207673  0.61759576  0.58245196    -0.51500
C1168       C  0.04222354  0.63781151  0.56829263     0.12500
H1169       H  0.09498552  0.59949868  0.53521038     0.17100
H1170       H  0.05363124  0.67038445  0.54059987     0.02800
H1171       H  0.10465913  0.64216566  0.60763001     0.17400
H1172       H  0.04055497  0.60428600  0.59457998     0.17200
C1173       C  0.07105210  0.61165133  0.89721595     0.89000
C1174       C  0.04250659  0.61577811  0.89699123    -0.51300
C1175       C  0.03504524  0.63688967  0.91139784     0.11900
C1176       C  0.05678210  0.65213347  0.92462014     0.22800
C1177       C  0.08228601  0.63592928  0.88452735    -0.52000
C1178       C  0.07477848  0.65712903  0.89894718     0.12000
C1179       C  0.07834978  0.61178483  0.92951887    -0.51500
C1180       C  0.07082709  0.63303475  0.94379817     0.12500
H1181       H  0.02930116  0.60282306  0.88694208     0.17100
H1182       H  0.05058267  0.66935072  0.93634054     0.02800
H1183       H  0.09458049  0.63637186  0.86561731     0.17400
H1184       H  0.08793228  0.59628026  0.94025870     0.17200
C1185       C  0.07526712  0.63680525  0.50091729    -0.10800
C1186       C  0.07387339  0.63607016  0.97475251    -0.12400
C1187       C  0.98607889  0.64296589  0.91729179    -0.10800
C1188       C  0.00872337  0.64258545  0.91537474    -0.12400
C1189       C  0.01548533  0.64231684  0.56811253    -0.10800
C1190       C  0.99285494  0.64187621  0.56997374    -0.12400
C1191       C  0.92633699  0.63628465  0.98479924    -0.10800
C1192       C  0.92755679  0.63542430  0.51096246    -0.12400
C1193       C  0.08673035  0.68625066  0.58426994    -0.10800
C1194       C  0.08965507  0.70711440  0.59404405    -0.12400
C1195       C  0.15840645  0.84186602  0.61896394    -0.10800
C1196       C  0.14247125  0.82566895  0.61838484    -0.12400
C1197       C  0.08593670  0.70290784  0.87996911    -0.10800
C1198       C  0.08175078  0.68211418  0.88946736    -0.12400
C1199       C  0.09545606  0.77681518  0.75246009    -0.10800
C1200       C  0.09554875  0.77699089  0.72618307    -0.12400
C1201       C  0.20643526  0.88683093  0.75678141    -0.10800
C1202       C  0.20623998  0.88684739  0.73048594    -0.12400
C1203       C  0.15761149  0.83906772  0.86392656    -0.10800
C1204       C  0.14150727  0.82301655  0.86323377    -0.12400
C1205       C  0.19918896  0.99401538  0.62719427    -0.10800
C1206       C  0.19907993  0.97133076  0.62739421    -0.12400
C1207       C  0.15846516  0.12481436  0.62054750    -0.10800
C1208       C  0.14224069  0.14073139  0.62096876    -0.12400
C1209       C  0.19833494  0.96998456  0.85830582    -0.10800
C1210       C  0.19840559  0.99267093  0.85795703    -0.12400
C1211       C  0.20658756  0.07731437  0.72828835    -0.10800
C1212       C  0.20632770  0.07728930  0.75457542    -0.12400
C1213       C  0.09557047  0.18702146  0.73139096    -0.10800
C1214       C  0.09567187  0.18697658  0.75765212    -0.12400
C1215       C  0.15860417  0.12236723  0.86549250    -0.10800
C1216       C  0.14272018  0.13860464  0.86571000    -0.12400
C1217       C  0.91599456  0.70358290  0.60356140    -0.10800
C1218       C  0.92025285  0.68258090  0.59483659    -0.12400
C1219       C  0.98936884  0.78470042  0.62598341    -0.10800
C1220       C  0.01205217  0.78480867  0.62532007    -0.12400
C1221       C  0.85974487  0.82373313  0.61880865    -0.10800
C1222       C  0.84356759  0.83966962  0.61837206    -0.12400
C1223       C  0.79536397  0.88628733  0.75352753    -0.10800
C1224       C  0.79538889  0.88604600  0.72725277    -0.12400
C1225       C  0.91153786  0.70665384  0.89079471    -0.10800
C1226       C  0.91452926  0.68594557  0.90109165    -0.12400
C1227       C  0.98877720  0.78286364  0.85570435    -0.10800
C1228       C  0.01146329  0.78277402  0.85526862    -0.12400
C1229       C  0.90477591  0.77591491  0.73030537    -0.10800
C1230       C  0.90456318  0.77571855  0.75660948    -0.12400
C1231       C  0.84147665  0.83987518  0.86455234    -0.10800
C1232       C  0.85742050  0.82367977  0.86509559    -0.12400
C1233       C  0.80224432  0.97035827  0.85735628    -0.10800
C1234       C  0.80232752  0.99306255  0.85779156    -0.12400
C1235       C  0.01222223  0.17962353  0.85815647    -0.10800
C1236       C  0.98954045  0.17957303  0.85764219    -0.12400
C1237       C  0.85974882  0.14006704  0.86526479    -0.10800
C1238       C  0.84366283  0.12400731  0.86559956    -0.12400
C1239       C  0.80195461  0.97003998  0.62658893    -0.10800
C1240       C  0.80203833  0.99273480  0.62705321    -0.12400
C1241       C  0.79589282  0.07674148  0.75702971    -0.10800
C1242       C  0.79587039  0.07658656  0.73075510    -0.12400
C1243       C  0.98908005  0.18035746  0.62816808    -0.10800
C1244       C  0.01177724  0.18043577  0.62850527    -0.12400
C1245       C  0.90469136  0.18799155  0.72837841    -0.10800
C1246       C  0.90480437  0.18793876  0.75465905    -0.12400
C1247       C  0.84225372  0.12289040  0.62037009    -0.10800
C1248       C  0.85829217  0.13899955  0.62002570    -0.12400
C1249       C  0.70508980  0.06789987  0.90016315    -0.10800
C1250       C  0.72587252  0.07083737  0.89004452    -0.12400
C1251       C  0.65491077  0.05448665  0.51021053    -0.10800
C1252       C  0.65566061  0.05585719  0.98402805    -0.12400
C1253       C  0.72238377  0.06684678  0.60374695    -0.10800
C1254       C  0.70154537  0.06255700  0.59460462    -0.12400
C1255       C  0.66125806  0.97379280  0.91465964    -0.10800
C1256       C  0.66172732  0.99642586  0.91654298    -0.12400
C1257       C  0.70099722  0.90072984  0.88958891    -0.10800
C1258       C  0.72185873  0.89645384  0.88039533    -0.12400
C1259       C  0.66185438  0.96694893  0.56852711    -0.10800
C1260       C  0.66146553  0.98958945  0.57028753    -0.12400
C1261       C  0.65469532  0.90907523  0.97454660    -0.10800
C1262       C  0.65544978  0.90781473  0.50073562    -0.12400
C1263       C  0.72533038  0.89218644  0.59472443    -0.10800
C1264       C  0.70460763  0.89515554  0.58455530    -0.12400
C1265       C  0.29995002  0.06256842  0.89021334    -0.10800
C1266       C  0.27900535  0.06662561  0.88117201    -0.12400
C1267       C  0.34696300  0.05562707  0.97464530    -0.10800
C1268       C  0.34629176  0.05700226  0.50081291    -0.12400
C1269       C  0.27604250  0.07139653  0.59452622    -0.10800
C1270       C  0.29679103  0.06840316  0.58440284    -0.12400
C1271       C  0.33955359  0.96735183  0.91730486    -0.10800
C1272       C  0.33999002  0.99000903  0.91568836    -0.12400
C1273       C  0.29602146  0.89595104  0.90054843    -0.10800
C1274       C  0.27528234  0.89292586  0.89045328    -0.12400
C1275       C  0.34030451  0.97425138  0.56957330    -0.10800
C1276       C  0.34000543  0.99690998  0.56779196    -0.12400
C1277       C  0.34570066  0.90749410  0.98405708    -0.10800
C1278       C  0.34659459  0.90893304  0.51020778    -0.12400
C1279       C  0.30006941  0.90137340  0.59484492    -0.10800
C1280       C  0.27915009  0.89718886  0.60394145    -0.12400
C1281       C  0.08713389  0.27720448  0.90098386    -0.10800
C1282       C  0.09006029  0.25643428  0.89093670    -0.12400
C1283       C  0.07405069  0.32810298  0.51035052    -0.10800
C1284       C  0.07541266  0.32727528  0.98416715    -0.12400
C1285       C  0.08169936  0.28159447  0.59529937    -0.10800
C1286       C  0.08586103  0.26071789  0.60454686    -0.12400
C1287       C  0.99310559  0.32129254  0.91556381    -0.10800
C1288       C  0.01574427  0.32076991  0.91719506    -0.12400
C1289       C  0.91620624  0.26002438  0.88215014    -0.10800
C1290       C  0.92044918  0.28090244  0.89123759    -0.12400
C1291       C  0.00895170  0.32157916  0.57039350    -0.10800
C1292       C  0.98629436  0.32108887  0.56884619    -0.12400
C1293       C  0.92683388  0.32748883  0.50149281    -0.10800
C1294       C  0.92808601  0.32815830  0.97531236    -0.12400
C1295       C  0.91464953  0.27765412  0.58484344    -0.10800
C1296       C  0.91168482  0.25686520  0.59494634    -0.12400
C1297       C  0.09010038  0.37037003  0.88965681    -0.16000
C1298       C  0.09328965  0.38949851  0.87595936     0.08000
C1299       C  0.09225734  0.41215444  0.85989339     0.09900
C1300       C  0.08759330  0.43127767  0.84678775    -0.16900
C1301       C  0.07968855  0.52451534  0.84384716    -0.16000
C1302       C  0.08121204  0.54509610  0.85486786     0.08000
C1303       C  0.08086912  0.56874467  0.86904165     0.09900
C1304       C  0.07814673  0.58848975  0.88168475    -0.16900
C1305       C  0.07461011  0.48047776  0.75570105    -0.10800
C1306       C  0.07463818  0.48355769  0.72966903    -0.12400
C1307       C  0.08036289  0.43914219  0.64173952    -0.16000
C1308       C  0.08197579  0.41857252  0.63069528     0.08000
C1309       C  0.08163517  0.39494088  0.61646391     0.09900
C1310       C  0.07883194  0.37523441  0.60375302    -0.16900
C1311       C  0.08765384  0.53237940  0.63824066    -0.16000
C1312       C  0.09233314  0.55140508  0.62492891     0.08000
C1313       C  0.09337992  0.57394079  0.60864065     0.09900
C1314       C  0.09013523  0.59302425  0.59490108    -0.16900
C1315       C  0.01178364  0.47983316  0.82024752    -0.10800
C1316       C  0.98938087  0.48336626  0.82032058    -0.12400
C1317       C  0.92145830  0.43859439  0.84382405    -0.16000
C1318       C  0.91994975  0.41789066  0.85458970     0.08000
C1319       C  0.92034721  0.39414369  0.86858702     0.09900
C1320       C  0.92318267  0.37443060  0.88130160    -0.16900
C1321       C  0.91383459  0.53179728  0.84808469    -0.16000
C1322       C  0.90937093  0.55081463  0.86144873     0.08000
C1323       C  0.90856938  0.57344304  0.87752402     0.09900
C1324       C  0.91187698  0.59264153  0.89098177    -0.16900
C1325       C  0.01201793  0.48347890  0.66528837    -0.10800
C1326       C  0.98959790  0.47996722  0.66552413    -0.12400
C1327       C  0.92630151  0.48343910  0.75620605    -0.10800
C1328       C  0.92640393  0.48027124  0.73018083    -0.12400
C1329       C  0.91376399  0.43161195  0.63860034    -0.16000
C1330       C  0.90923106  0.41260016  0.62526073     0.08000
C1331       C  0.90844288  0.39001812  0.60909690     0.09900
C1332       C  0.91182998  0.37089688  0.59551323    -0.16900
C1333       C  0.92168103  0.52480031  0.64248631    -0.16000
C1334       C  0.92007231  0.54547676  0.63167748     0.08000
C1335       C  0.92027293  0.56921959  0.61765675     0.09900
C1336       C  0.92294742  0.58896085  0.60493216    -0.16900
C1337       C  0.45781378  0.06073238  0.84324345    -0.16000
C1338       C  0.43713521  0.06223290  0.85408309     0.08000
C1339       C  0.41337330  0.06198811  0.86808716     0.09900
C1340       C  0.39359471  0.05940660  0.88077209    -0.16900
C1341       C  0.55105583  0.06846471  0.84703425    -0.16000
C1342       C  0.57006133  0.07299773  0.86039906     0.08000
C1343       C  0.59262566  0.07396404  0.87660615     0.09900
C1344       C  0.61177424  0.07078043  0.89021419    -0.16900
C1345       C  0.50241626  0.05619764  0.75536815    -0.10800
C1346       C  0.49929784  0.05622194  0.72933755    -0.12400
C1347       C  0.39001308  0.07116093  0.59477243    -0.16000
C1348       C  0.40916802  0.07440740  0.60832026     0.08000
C1349       C  0.43178304  0.07347816  0.62439328     0.09900
C1350       C  0.45081352  0.06890490  0.63766849    -0.16900
C1351       C  0.60804327  0.05954544  0.60388535    -0.16000
C1352       C  0.58834094  0.06242150  0.61660890     0.08000
C1353       C  0.56465063  0.06283855  0.63073556     0.09900
C1354       C  0.54399871  0.06129386  0.64162543    -0.16900
C1355       C  0.49880785  0.97053669  0.81971154    -0.10800
C1356       C  0.50239858  0.99294018  0.81960962    -0.12400
C1357       C  0.45021217  0.89488659  0.84722923    -0.16000
C1358       C  0.43111613  0.89037880  0.86048048     0.08000
C1359       C  0.40843153  0.88959845  0.87650486     0.09900
C1360       C  0.38924981  0.89297677  0.89001159    -0.16900
C1361       C  0.60738678  0.90410211  0.88127815    -0.16000
C1362       C  0.58765465  0.90135455  0.86861577     0.08000
C1363       C  0.56400701  0.90103630  0.85443512     0.09900
C1364       C  0.54341606  0.90258739  0.84344687    -0.16900
C1365       C  0.49917653  0.99320337  0.66504784    -0.10800
C1366       C  0.50252443  0.97076168  0.66505802    -0.12400
C1367       C  0.50200572  0.90770434  0.72951882    -0.10800
C1368       C  0.49888877  0.90761541  0.75555901    -0.12400
C1369       C  0.39364953  0.90443225  0.60367162    -0.16000
C1370       C  0.41331876  0.90169803  0.61646026     0.08000
C1371       C  0.43692085  0.90137767  0.63072878     0.09900
C1372       C  0.45750172  0.90289451  0.64174074    -0.16900
C1373       C  0.61133497  0.89274309  0.59450389    -0.16000
C1374       C  0.59218484  0.88947410  0.60813497     0.08000
C1375       C  0.56963549  0.89034970  0.62441686     0.09900
C1376       C  0.55064787  0.89489887  0.63783841    -0.16900
loop_ 
_geom_bond_atom_site_label_1 
_geom_bond_atom_site_label_2 
_geom_bond_distance 
_geom_bond_site_symmetry_2 
_ccdc_geom_bond_type 
C1            C2   1.534       .  S
C1            C7   1.535       .  S
C1            C5   1.534       .  S
C1          C688   1.469       .  S
C2            H9   1.087       .  S
C2            C3   1.365       .  D
C3            C4   1.540       .  S
C3          C684   1.445       .  S
C4            C8   1.540       .  S
C4            C6   1.536       .  S
C4           H10   1.112       .  S
C5           H11   1.087       .  S
C5            C6   1.361       .  D
C6          C678   1.440       .  S
C7           H12   1.086       .  S
C7            C8   1.366       .  D
C8          C679   1.445       .  S
C13          C14   1.534       .  S
C13          C19   1.535       .  S
C13          C17   1.535       .  S
C13         C669   1.468       .  S
C14          H21   1.087       .  S
C14          C15   1.365       .  D
C15          C16   1.540       .  S
C15         C676   1.446       .  S
C16          C20   1.540       .  S
C16          C18   1.535       .  S
C16          H22   1.112       .  S
C17          H23   1.086       .  S
C17          C18   1.361       .  D
C18         C667   1.440       .  S
C19          H24   1.086       .  S
C19          C20   1.366       .  D
C20         C680   1.445       .  S
C25          C26   1.534       .  S
C25          C31   1.535       .  S
C25          C29   1.534       .  S
C25         C662   1.469       .  S
C26          H33   1.087       .  S
C26          C27   1.365       .  D
C27          C28   1.540       .  S
C27         C666   1.445       .  S
C28          C32   1.540       .  S
C28          C30   1.536       .  S
C28          H34   1.112       .  S
C29          H35   1.086       .  S
C29          C30   1.361       .  D
C30         C677   1.440   1_545  S
C31          H36   1.087       .  S
C31          C32   1.366       .  D
C32         C658   1.445       .  S
C37          C38   1.534       .  S
C37          C43   1.535       .  S
C37          C41   1.534       .  S
C37         C653   1.470       .  S
C38          H45   1.087       .  S
C38          C39   1.365       .  D
C39          C40   1.540       .  S
C39         C649   1.446       .  S
C40          C44   1.540       .  S
C40          C42   1.535       .  S
C40          H46   1.112       .  S
C41          H47   1.087       .  S
C41          C42   1.361       .  D
C42         C668   1.440   1_545  S
C43          H48   1.087       .  S
C43          C44   1.366       .  D
C44         C657   1.445       .  S
C49          C50   1.534       .  S
C49          C55   1.535       .  S
C49          C53   1.534       .  S
C49         C641   1.469       .  S
C50          H57   1.087       .  S
C50          C51   1.365       .  D
C51          C52   1.540       .  S
C51         C645   1.445       .  S
C52          C56   1.540       .  S
C52          C54   1.536       .  S
C52          H58   1.112       .  S
C53          H59   1.087       .  S
C53          C54   1.361       .  D
C54         C638   1.441       .  S
C55          H60   1.086       .  S
C55          C56   1.366       .  D
C56         C640   1.445       .  S
C61          C62   1.534       .  S
C61          C67   1.536       .  S
C61          C65   1.534       .  S
C61         C633   1.469       .  S
C62          H69   1.087       .  S
C62          C63   1.365       .  D
C63          C64   1.540       .  S
C63         C629   1.445       .  S
C64          C68   1.539       .  S
C64          C66   1.535       .  S
C64          H70   1.112       .  S
C65          H71   1.087       .  S
C65          C66   1.361       .  D
C66         C628   1.440       .  S
C67          H72   1.087       .  S
C67          C68   1.366       .  D
C68         C639   1.445       .  S
C73          C74   1.534       .  S
C73          C79   1.534       .  S
C73          C77   1.535       .  S
C73         C623   1.468       .  S
C74          H81   1.087       .  S
C74          C75   1.365       .  D
C75          C76   1.541       .  S
C75         C619   1.446       .  S
C76          C80   1.540       .  S
C76          C78   1.535       .  S
C76          H82   1.112       .  S
C77          H83   1.087       .  S
C77          C78   1.361       .  D
C78         C637   1.441       .  S
C79          H84   1.086       .  S
C79          C80   1.365       .  D
C80         C618   1.444       .  S
C85          C86   1.534       .  S
C85          C91   1.534       .  S
C85          C89   1.535       .  S
C85         C612   1.468       .  S
C86          H93   1.087       .  S
C86          C87   1.365       .  D
C87          C88   1.540       .  S
C87         C613   1.445       .  S
C88          C92   1.540       .  S
C88          C90   1.535       .  S
C88          H94   1.112       .  S
C89          H95   1.087       .  S
C89          C90   1.361       .  D
C90         C627   1.440       .  S
C91          H96   1.087       .  S
C91          C92   1.365       .  D
C92         C617   1.444       .  S
C97          C98   1.532       .  S
C97         C103   1.532       .  S
C97         C101   1.533       .  S
C97         C644   1.469       .  S
C98         H105   1.087       .  S
C98          C99   1.365       .  D
C99         C100   1.540       .  S
C99         C605   1.441       .  S
C100        C104   1.536       .  S
C100        C102   1.541       .  S
C100        H106   1.111       .  S
C101        H107   1.087       .  S
C101        C102   1.366       .  D
C102        C607   1.444       .  S
C103        H108   1.087       .  S
C103        C104   1.360       .  D
C104        C604   1.442       .  S
C109        C110   1.532       .  S
C109        C115   1.535       .  S
C109        C113   1.534       .  S
C109        C632   1.471       .  S
C110        H117   1.086       .  S
C110        C111   1.362       .  D
C111        C112   1.535       .  S
C111        C599   1.441       .  S
C112        C116   1.536       .  S
C112        C114   1.539       .  S
C112        H118   1.112       .  S
C113        H119   1.086       .  S
C113        C114   1.367       .  D
C114        C602   1.443       .  S
C115        H120   1.087       .  S
C115        C116   1.366       .  D
C116        C606   1.441       .  S
C121        C122   1.532       .  S
C121        C127   1.535       .  S
C121        C125   1.535       .  S
C121        C622   1.472       .  S
C122        H129   1.086       .  S
C122        C123   1.362       .  D
C123        C124   1.536       .  S
C123        C603   1.442       .  S
C124        C128   1.537       .  S
C124        C126   1.540       .  S
C124        H130   1.112       .  S
C125        H131   1.086       .  S
C125        C126   1.367       .  D
C126        C597   1.444       .  S
C127        H132   1.087       .  S
C127        C128   1.366       .  D
C128        C595   1.442       .  S
C133        C134   1.533       .  S
C133        C139   1.531       .  S
C133        C137   1.533       .  S
C133        C609   1.468       .  S
C134        H141   1.087       .  S
C134        C135   1.365       .  D
C135        C136   1.540       .  S
C135        C596   1.442       .  S
C136        C140   1.536       .  S
C136        C138   1.541       .  S
C136        H142   1.112       .  S
C137        H143   1.087       .  S
C137        C138   1.366       .  D
C138        C593   1.443       .  S
C139        H144   1.087       .  S
C139        C140   1.360       .  D
C140        C600   1.441       .  S
C145        C146   1.532       .  S
C145        C151   1.535       .  S
C145        C149   1.534       .  S
C145        C681   1.472       .  S
C146        H153   1.086       .  S
C146        C147   1.361       .  D
C147        C148   1.536       .  S
C147        C587   1.442       .  S
C148        C152   1.536       .  S
C148        C150   1.540       .  S
C148        H154   1.112       .  S
C149        H155   1.087       .  S
C149        C150   1.367       .  D
C150        C591   1.444       .  S
C151        H156   1.087       .  S
C151        C152   1.366       .  D
C152        C590   1.441       .  S
C157        C158   1.532       .  S
C157        C163   1.532       .  S
C157        C161   1.533       .  S
C157        C672   1.468       .  S
C158        H165   1.088       .  S
C158        C159   1.365       .  D
C159        C160   1.540       .  S
C159        C589   1.441       .  S
C160        C164   1.536       .  S
C160        C162   1.541       .  S
C160        H166   1.111       .  S
C161        H167   1.087       .  S
C161        C162   1.366       .  D
C162        C585   1.443       .  S
C163        H168   1.087       .  S
C163        C164   1.361       .  D
C164        C583   1.441       .  S
C169        C170   1.532       .  S
C169        C175   1.532       .  S
C169        C173   1.533       .  S
C169        C659   1.468       .  S
C170        H177   1.087       .  S
C170        C171   1.365       .  D
C171        C172   1.540       .  S
C171        C580   1.441       .  S
C172        C176   1.536       .  S
C172        C174   1.541       .  S
C172        H178   1.112       .  S
C173        H179   1.087       .  S
C173        C174   1.366       .  D
C174        C582   1.442       .  S
C175        H180   1.087       .  S
C175        C176   1.360       .  D
C176        C588   1.442   1_545  S
C181        C182   1.532       .  S
C181        C187   1.535       .  S
C181        C185   1.535       .  S
C181        C652   1.472       .  S
C182        H189   1.086       .  S
C182        C183   1.361       .  D
C183        C184   1.536       .  S
C183        C584   1.441   1_545  S
C184        C188   1.537       .  S
C184        C186   1.540       .  S
C184        H190   1.112       .  S
C185        H191   1.086       .  S
C185        C186   1.367       .  D
C186        C577   1.444       .  S
C187        H192   1.087       .  S
C187        C188   1.366       .  D
C188        C579   1.441       .  S
C193        C194   1.532       .  S
C193        C199   1.532       .  S
C193        C197   1.533       .  S
C193        C685   1.468       .  S
C194        H201   1.087       .  S
C194        C195   1.365       .  D
C195        C196   1.540       .  S
C195        C574   1.442       .  S
C196        C200   1.536       .  S
C196        C198   1.541       .  S
C196        H202   1.111       .  S
C197        H203   1.087       .  S
C197        C198   1.366       .  D
C198        C576   1.443       .  S
C199        H204   1.087       .  S
C199        C200   1.360       .  D
C200        C571   1.441       .  S
C205        C206   1.532       .  S
C205        C211   1.535       .  S
C205        C209   1.534       .  S
C205        C673   1.472       .  S
C206        H213   1.086       .  S
C206        C207   1.362       .  D
C207        C208   1.535       .  S
C207        C567   1.441       .  S
C208        C212   1.536       .  S
C208        C210   1.540       .  S
C208        H214   1.112       .  S
C209        H215   1.086       .  S
C209        C210   1.367       .  D
C210        C569   1.444       .  S
C211        H216   1.087       .  S
C211        C212   1.366       .  D
C212        C573   1.442       .  S
C217        C218   1.532       .  S
C217        C223   1.535       .  S
C217        C221   1.534       .  S
C217        C663   1.472       .  S
C218        H225   1.086       .  S
C218        C219   1.362       .  D
C219        C220   1.535       .  S
C219        C572   1.441   1_545  S
C220        C224   1.536       .  S
C220        C222   1.539       .  S
C220        H226   1.112       .  S
C221        H227   1.086       .  S
C221        C222   1.366       .  D
C222        C566   1.442       .  S
C223        H228   1.087       .  S
C223        C224   1.366       .  D
C224        C563   1.442       .  S
C229        C230   1.532       .  S
C229        C235   1.531       .  S
C229        C233   1.533       .  S
C229        C656   1.469       .  S
C230        H237   1.087       .  S
C230        C231   1.365       .  D
C231        C232   1.540       .  S
C231        C564   1.442       .  S
C232        C236   1.536       .  S
C232        C234   1.541       .  S
C232        H238   1.112       .  S
C233        H239   1.087       .  S
C233        C234   1.367       .  D
C234        C561   1.444       .  S
C235        H240   1.087       .  S
C235        C236   1.360       .  D
C236        C568   1.441   1_545  S
In241       O243   2.262       .  S
In241       O244   2.241       .  S
In241       O252   2.254       .  S
In241       O246   2.252       .  S
In241       O248   2.263       .  S
In241       O249   2.256       .  S
In241       O250   2.232       .  S
In241       O253   2.248       .  S
C242        O248   1.261       .  A
C242        O250   1.258       .  A
C242        C555   1.435       .  S
O243        C251   1.260       .  A
O244        C251   1.258       .  A
C245        O252   1.259       .  A
C245        O246   1.258       .  A
C245        C560   1.437       .  S
C247        O249   1.260       .  A
C247        O253   1.259       .  A
C247        C557   1.439       .  S
C251        C608   1.438       .  S
In254       O256   2.249       .  S
In254       O257   2.252       .  S
In254       O265   2.256       .  S
In254       O259   2.250       .  S
In254       O261   2.263       .  S
In254       O262   2.242       .  S
In254       O263   2.229       .  S
In254       O266   2.258       .  S
C255        O261   1.261       .  A
C255        O263   1.257       .  A
C255        C552   1.435   1_545  S
O256        C264   1.260       .  A
O257        C264   1.260       .  A
C258        O265   1.259       .  A
C258        O259   1.258       .  A
C258        C559   1.437       .  S
C260        O262   1.257       .  A
C260        O266   1.259       .  A
C260        C565   1.436       .  S
C264        C554   1.438       .  S
In267       O269   2.248       .  S
In267       O270   2.254       .  S
In267       O278   2.256       .  S
In267       O272   2.250       .  S
In267       O274   2.262       .  S
In267       O275   2.241       .  S
In267       O276   2.229       .  S
In267       O279   2.261       .  S
C268        O274   1.261       .  A
C268        O276   1.257       .  A
C268        C548   1.434       .  S
O269        C277   1.260       .  A
O270        C277   1.260       .  A
C271        O278   1.259       .  A
C271        O272   1.258       .  A
C271        C549   1.437       .  S
C273        O275   1.257       .  A
C273        O279   1.260       .  A
C273        C601   1.436       .  S
C277        C558   1.439       .  S
In280       O282   2.261       .  S
In280       O283   2.241       .  S
In280       O291   2.254       .  S
In280       O285   2.251       .  S
In280       O287   2.263       .  S
In280       O288   2.254       .  S
In280       O289   2.232       .  S
In280       O292   2.249       .  S
C281        O287   1.261       .  A
C281        O289   1.258       .  A
C281        C546   1.436   1_545  S
O282        C290   1.260       .  A
O283        C290   1.258       .  A
C284        O291   1.259       .  A
C284        O285   1.258       .  A
C284        C550   1.437       .  S
C286        O288   1.260       .  A
C286        O292   1.259       .  A
C286        C553   1.438       .  S
C290        C562   1.437       .  S
In293       O295   2.263       .  S
In293       O296   2.242       .  S
In293       O304   2.255       .  S
In293       O298   2.252       .  S
In293       O300   2.262       .  S
In293       O301   2.256       .  S
In293       O302   2.232       .  S
In293       O305   2.250       .  S
C294        O300   1.261       .  A
C294        O302   1.257       .  A
C294        C539   1.434       .  S
O295        C303   1.260       .  A
O296        C303   1.258       .  A
C297        O304   1.259       .  A
C297        O298   1.258       .  A
C297        C544   1.438       .  S
C299        O301   1.261       .  A
C299        O305   1.260       .  A
C299        C542   1.440       .  S
C303        C537   1.438       .  S
In306       O308   2.251       .  S
In306       O309   2.254       .  S
In306       O317   2.260       .  S
In306       O311   2.252       .  S
In306       O313   2.264       .  S
In306       O314   2.244       .  S
In306       O315   2.230       .  S
In306       O318   2.258       .  S
C307        O313   1.262       .  A
C307        O315   1.258       .  A
C307        C545   1.435       .  S
O308        C316   1.259       .  A
O309        C316   1.260       .  A
C310        O317   1.259       .  A
C310        O311   1.258       .  A
C310        C543   1.439       .  S
C312        O314   1.258       .  A
C312        O318   1.260       .  A
C312        C570   1.437       .  S
C316        C535   1.438       .  S
In319       O321   2.253       .  S
In319       O322   2.258       .  S
In319       O330   2.258       .  S
In319       O324   2.250       .  S
In319       O326   2.263       .  S
In319       O327   2.242       .  S
In319       O328   2.230       .  S
In319       O331   2.262       .  S
C320        O326   1.261       .  A
C320        O328   1.258       .  A
C320        C531   1.434       .  S
O321        C329   1.259       .  A
O322        C329   1.260       .  A
C323        O330   1.259       .  A
C323        O324   1.258       .  A
C323        C533   1.437       .  S
C325        O327   1.257       .  A
C325        O331   1.260       .  A
C325        C529   1.437       .  S
C329        C541   1.441       .  S
In332       O334   2.260       .  S
In332       O335   2.242       .  S
In332       O343   2.253       .  S
In332       O337   2.250       .  S
In332       O339   2.262       .  S
In332       O340   2.255       .  S
In332       O341   2.232       .  S
In332       O344   2.248       .  S
C333        O339   1.261       .  A
C333        O341   1.258       .  A
C333        C551   1.435       .  S
O334        C342   1.260       .  A
O335        C342   1.258       .  A
C336        O343   1.259       .  A
C336        O337   1.258       .  A
C336        C534   1.437       .  S
C338        O340   1.260       .  A
C338        O344   1.259       .  A
C338        C536   1.438       .  S
C342        C575   1.437       .  S
In345       O347   2.262       .  S
In345       O348   2.239       .  S
In345       O356   2.252       .  S
In345       O350   2.250       .  S
In345       O352   2.261       .  S
In345       O353   2.252       .  S
In345       O354   2.230       .  S
In345       O357   2.247       .  S
C346        O352   1.261       .  A
C346        O354   1.258       .  A
C346        C547   1.434       .  S
O347        C355   1.260       .  A
O348        C355   1.257       .  A
C349        O356   1.259       .  A
C349        O350   1.258       .  A
C349        C528   1.437       .  S
C351        O353   1.260       .  A
C351        O357   1.259       .  A
C351        C526   1.437       .  S
C355        C594   1.436       .  S
In358       O360   2.250       .  S
In358       O361   2.256       .  S
In358       O369   2.257       .  S
In358       O363   2.250       .  S
In358       O365   2.261       .  S
In358       O366   2.244       .  S
In358       O367   2.228       .  S
In358       O370   2.260       .  S
C359        O365   1.261       .  A
C359        O367   1.258       .  A
C359        C522   1.434   1_545  S
O360        C368   1.259       .  A
O361        C368   1.260       .  A
C362        O369   1.259       .  A
C362        O363   1.258       .  A
C362        C527   1.437       .  S
C364        O366   1.258       .  A
C364        O370   1.260       .  A
C364        C578   1.438       .  S
C368        C524   1.439       .  S
In371       O373   2.248       .  S
In371       O374   2.252       .  S
In371       O382   2.259       .  S
In371       O376   2.254       .  S
In371       O378   2.263       .  S
In371       O379   2.245       .  S
In371       O380   2.230       .  S
In371       O383   2.259       .  S
C372        O378   1.262       .  A
C372        O380   1.258       .  A
C372        C556   1.435       .  S
O373        C381   1.260       .  A
O374        C381   1.260       .  A
C375        O382   1.258       .  A
C375        O376   1.258       .  A
C375        C520   1.439       .  S
C377        O379   1.258       .  A
C377        O383   1.260       .  A
C377        C598   1.438       .  S
C381        C525   1.437       .  S
In384       O386   2.262       .  S
In384       O387   2.240       .  S
In384       O395   2.254       .  S
In384       O389   2.251       .  S
In384       O391   2.260       .  S
In384       O392   2.255       .  S
In384       O393   2.231       .  S
In384       O396   2.249       .  S
C385        O391   1.261       .  A
C385        O393   1.258       .  A
C385        C517   1.434   1_545  S
O386        C394   1.260       .  A
O387        C394   1.257       .  A
C388        O395   1.259       .  A
C388        O389   1.258       .  A
C388        C519   1.438       .  S
C390        O392   1.260       .  A
C390        O396   1.259       .  A
C390        C523   1.439       .  S
C394        C581   1.436       .  S
In397       O399   2.263       .  S
In397       O400   2.240       .  S
In397       O408   2.254       .  S
In397       O402   2.252       .  S
In397       O404   2.262       .  S
In397       O405   2.256       .  S
In397       O406   2.228       .  S
In397       O409   2.249       .  S
C398        O404   1.261       .  A
C398        O406   1.258       .  A
C398        C521   1.434       .  S
O399        C407   1.260       .  A
O400        C407   1.257       .  A
C401        O408   1.259       .  A
C401        O402   1.259       .  A
C401        C515   1.438       .  S
C403        O405   1.260       .  A
C403        O409   1.259       .  A
C403        C513   1.440       .  S
C407        C586   1.437       .  S
In410       O412   2.249       .  S
In410       O413   2.253       .  S
In410       O421   2.256       .  S
In410       O415   2.254       .  S
In410       O417   2.262       .  S
In410       O418   2.245       .  S
In410       O419   2.229       .  S
In410       O422   2.261       .  S
C411        O417   1.261       .  A
C411        O419   1.257       .  A
C411        C540   1.434       .  S
O412        C420   1.260       .  A
O413        C420   1.261       .  A
C414        O421   1.259       .  A
C414        O415   1.258       .  A
C414        C516   1.439       .  S
C416        O418   1.257       .  A
C416        O422   1.259       .  A
C416        C509   1.438       .  S
C420        C511   1.438       .  S
In423       O425   2.250       .  S
In423       O426   2.255       .  S
In423       O434   2.256       .  S
In423       O428   2.252       .  S
In423       O430   2.263       .  S
In423       O431   2.244       .  S
In423       O432   2.227       .  S
In423       O435   2.260       .  S
C424        O430   1.261       .  A
C424        O432   1.257       .  A
C424        C518   1.433       .  S
O425        C433   1.260       .  A
O426        C433   1.260       .  A
C427        O434   1.258       .  A
C427        O428   1.258       .  A
C427        C507   1.437       .  S
C429        O431   1.257       .  A
C429        O435   1.260       .  A
C429        C592   1.437       .  S
C433        C514   1.440       .  S
In436       O438   2.264       .  S
In436       O439   2.239       .  S
In436       O447   2.252       .  S
In436       O441   2.250       .  S
In436       O443   2.264       .  S
In436       O444   2.252       .  S
In436       O445   2.229       .  S
In436       O448   2.248       .  S
C437        O443   1.261       .  A
C437        O445   1.257       .  A
C437        C532   1.434       .  S
O438        C446   1.260       .  A
O439        C446   1.257       .  A
C440        O447   1.259       .  A
C440        O441   1.259       .  A
C440        C508   1.437       .  S
C442        O444   1.260       .  A
C442        O448   1.260       .  A
C442        C512   1.438       .  S
C446        C506   1.436       .  S
C449        C450   1.535       .  S
C449        C455   1.532       .  S
C449        C453   1.535       .  S
C449        C648   1.471       .  S
C450        H457   1.086       .  S
C450        C451   1.367       .  D
C451        C452   1.539       .  S
C451        C530   1.444       .  S
C452        C456   1.535       .  S
C452        C454   1.535       .  S
C452        H458   1.112       .  S
C453        H459   1.087       .  S
C453        C454   1.366       .  D
C454        C504   1.440       .  S
C455        H460   1.086       .  S
C455        C456   1.361       .  D
C456        C502   1.441       .  S
C461        C462   1.531       .  S
C461        C467   1.532       .  S
C461        C465   1.533       .  S
C461        C636   1.468       .  S
C462        H469   1.087       .  S
C462        C463   1.364       .  D
C463        C464   1.541       .  S
C463        C503   1.440       .  S
C464        C468   1.537       .  S
C464        C466   1.541       .  S
C464        H470   1.111       .  S
C465        H471   1.087       .  S
C465        C466   1.367       .  D
C466        C538   1.444       .  S
C467        H472   1.087       .  S
C467        C468   1.360       .  D
C468        C499   1.442       .  S
C473        C474   1.533       .  S
C473        C479   1.532       .  S
C473        C477   1.533       .  S
C473        C626   1.468       .  S
C474        H481   1.087       .  S
C474        C475   1.365       .  D
C475        C476   1.539       .  S
C475        C497   1.441       .  S
C476        C480   1.536       .  S
C476        C478   1.540       .  S
C476        H482   1.112       .  S
C477        H483   1.087       .  S
C477        C478   1.366       .  D
C478        C505   1.442       .  S
C479        H484   1.087       .  S
C479        C480   1.360       .  D
C480        C501   1.440       .  S
C485        C486   1.532       .  S
C485        C491   1.535       .  S
C485        C489   1.534       .  S
C485        C616   1.472       .  S
C486        H493   1.086       .  S
C486        C487   1.362       .  D
C487        C488   1.536       .  S
C487        C500   1.442       .  S
C488        C492   1.537       .  S
C488        C490   1.540       .  S
C488        H494   1.112       .  S
C489        H495   1.086       .  S
C489        C490   1.367       .  D
C490        C510   1.444       .  S
C491        H496   1.087       .  S
C491        C492   1.366       .  D
C492        C498   1.441       .  S
C497       C1186   1.205   1_554  T
C498       C1185   1.205       .  T
C499        C500   1.206   1_655  T
C501        C502   1.205   1_455  T
C503       C1192   1.205       .  T
C504       C1191   1.205   1_554  T
C505        C506   1.206       .  T
C507        C508   1.207       .  T
C509        C510   1.207       .  T
C511        C512   1.208       .  T
C513        C514   1.208       .  T
C515        C516   1.208       .  T
C517        C518   1.205       .  T
C519        C520   1.208       .  T
C521        C522   1.205       .  T
C523        C524   1.208       .  T
C525        C526   1.207       .  T
C527        C528   1.207       .  T
C529        C530   1.207       .  T
C531        C532   1.205   1_655  T
C533        C534   1.207       .  T
C535        C536   1.208       .  T
C537        C538   1.207       .  T
C539        C540   1.205   1_655  T
C541        C542   1.209       .  T
C543        C544   1.208       .  T
C545        C546   1.206       .  T
C547        C548   1.205   1_455  T
C549        C550   1.207       .  T
C551        C552   1.205       .  T
C553        C554   1.207       .  T
C555        C556   1.206   1_655  T
C557        C558   1.208       .  T
C559        C560   1.207       .  T
C561        C562   1.207       .  T
C563       C1252   1.206   1_554  T
C564       C1251   1.206       .  T
C565        C566   1.206       .  T
C567        C568   1.205       .  T
C569        C570   1.207       .  T
C571        C572   1.205       .  T
C573       C1262   1.206       .  T
C574       C1261   1.206   1_554  T
C575        C576   1.207       .  T
C577        C578   1.208       .  T
C579       C1268   1.205       .  T
C580       C1267   1.205   1_554  T
C581        C582   1.206       .  T
C583        C584   1.206       .  T
C585        C586   1.207       .  T
C587        C588   1.206       .  T
C589       C1278   1.205       .  T
C590       C1277   1.205   1_554  T
C591        C592   1.207       .  T
C593        C594   1.206       .  T
C595       C1284   1.206   1_554  T
C596       C1283   1.206       .  T
C597        C598   1.207       .  T
C599        C600   1.205   1_655  T
C601        C602   1.206       .  T
C603        C604   1.206   1_455  T
C605       C1294   1.205   1_554  T
C606       C1293   1.205       .  T
C607        C608   1.207       .  T
C609        C610   1.206       .  T
C610        C611   1.412       .  S
C611        C612   1.206       .  T
C613        C614   1.208       .  T
C614        C615   1.416       .  S
C615        C616   1.208       .  T
C617        C618   1.207       .  T
C619        C620   1.208       .  T
C620        C621   1.416       .  S
C621        C622   1.208       .  T
C623        C624   1.206       .  T
C624        C625   1.412       .  S
C625        C626   1.206       .  T
C627        C628   1.205   1_455  T
C629        C630   1.208       .  T
C630        C631   1.415       .  S
C631        C632   1.208       .  T
C633        C634   1.206       .  T
C634        C635   1.412       .  S
C635        C636   1.206       .  T
C637        C638   1.205   1_455  T
C639        C640   1.208       .  T
C641        C642   1.206       .  T
C642        C643   1.412       .  S
C643        C644   1.206       .  T
C645        C646   1.208       .  T
C646        C647   1.415       .  S
C647        C648   1.208       .  T
C649        C650   1.208       .  T
C650        C651   1.416       .  S
C651        C652   1.208       .  T
C653        C654   1.207       .  T
C654        C655   1.413       .  S
C655        C656   1.207       .  T
C657        C658   1.208       .  T
C659        C660   1.206       .  T
C660        C661   1.412       .  S
C661        C662   1.206       .  T
C663        C664   1.208       .  T
C664        C665   1.415       .  S
C665        C666   1.208       .  T
C667        C668   1.205       .  T
C669        C670   1.206       .  T
C670        C671   1.412       .  S
C671        C672   1.206       .  T
C673        C674   1.208       .  T
C674        C675   1.416       .  S
C675        C676   1.208       .  T
C677        C678   1.205       .  T
C679        C680   1.208       .  T
C681        C682   1.208       .  T
C682        C683   1.416       .  S
C683        C684   1.208       .  T
C685        C686   1.206       .  T
C686        C687   1.412       .  S
C687        C688   1.206       .  T
C689        C690   1.534       .  S
C689        C695   1.535       .  S
C689        C693   1.534       .  S
C689       C1376   1.469       .  S
C690        H697   1.087       .  S
C690        C691   1.365       .  D
C691        C692   1.540       .  S
C691       C1372   1.445       .  S
C692        C696   1.540       .  S
C692        C694   1.536       .  S
C692        H698   1.112       .  S
C693        H699   1.087       .  S
C693        C694   1.361       .  D
C694       C1366   1.440       .  S
C695        H700   1.087       .  S
C695        C696   1.366       .  D
C696       C1367   1.445       .  S
C701        C702   1.534       .  S
C701        C707   1.535       .  S
C701        C705   1.535       .  S
C701       C1357   1.468       .  S
C702        H709   1.087       .  S
C702        C703   1.365       .  D
C703        C704   1.540       .  S
C703       C1364   1.446       .  S
C704        C708   1.540       .  S
C704        C706   1.535       .  S
C704        H710   1.112       .  S
C705        H711   1.086       .  S
C705        C706   1.361       .  D
C706       C1355   1.440       .  S
C707        H712   1.087       .  S
C707        C708   1.366       .  D
C708       C1368   1.445       .  S
C713        C714   1.534       .  S
C713        C719   1.535       .  S
C713        C717   1.534       .  S
C713       C1350   1.469       .  S
C714        H721   1.087       .  S
C714        C715   1.365       .  D
C715        C716   1.540       .  S
C715       C1354   1.445       .  S
C716        C720   1.540       .  S
C716        C718   1.536       .  S
C716        H722   1.112       .  S
C717        H723   1.087       .  S
C717        C718   1.361       .  D
C718       C1365   1.440   1_545  S
C719        H724   1.087       .  S
C719        C720   1.366       .  D
C720       C1346   1.445       .  S
C725        C726   1.534       .  S
C725        C731   1.535       .  S
C725        C729   1.534       .  S
C725       C1341   1.470       .  S
C726        H733   1.087       .  S
C726        C727   1.365       .  D
C727        C728   1.540       .  S
C727       C1337   1.446       .  S
C728        C732   1.540       .  S
C728        C730   1.535       .  S
C728        H734   1.112       .  S
C729        H735   1.087       .  S
C729        C730   1.361       .  D
C730       C1356   1.440   1_545  S
C731        H736   1.087       .  S
C731        C732   1.366       .  D
C732       C1345   1.445       .  S
C737        C738   1.534       .  S
C737        C743   1.535       .  S
C737        C741   1.534       .  S
C737       C1329   1.469       .  S
C738        H745   1.087       .  S
C738        C739   1.365       .  D
C739        C740   1.540       .  S
C739       C1333   1.445       .  S
C740        C744   1.540       .  S
C740        C742   1.536       .  S
C740        H746   1.112       .  S
C741        H747   1.086       .  S
C741        C742   1.361       .  D
C742       C1326   1.441       .  S
C743        H748   1.087       .  S
C743        C744   1.366       .  D
C744       C1328   1.445       .  S
C749        C750   1.534       .  S
C749        C755   1.536       .  S
C749        C753   1.534       .  S
C749       C1321   1.469       .  S
C750        H757   1.087       .  S
C750        C751   1.365       .  D
C751        C752   1.540       .  S
C751       C1317   1.445       .  S
C752        C756   1.539       .  S
C752        C754   1.535       .  S
C752        H758   1.112       .  S
C753        H759   1.086       .  S
C753        C754   1.361       .  D
C754       C1316   1.440       .  S
C755        H760   1.086       .  S
C755        C756   1.366       .  D
C756       C1327   1.445       .  S
C761        C762   1.534       .  S
C761        C767   1.534       .  S
C761        C765   1.535       .  S
C761       C1311   1.468       .  S
C762        H769   1.087       .  S
C762        C763   1.365       .  D
C763        C764   1.541       .  S
C763       C1307   1.446       .  S
C764        C768   1.540       .  S
C764        C766   1.535       .  S
C764        H770   1.112       .  S
C765        H771   1.086       .  S
C765        C766   1.361       .  D
C766       C1325   1.441       .  S
C767        H772   1.087       .  S
C767        C768   1.365       .  D
C768       C1306   1.444       .  S
C773        C774   1.534       .  S
C773        C779   1.534       .  S
C773        C777   1.535       .  S
C773       C1300   1.468       .  S
C774        H781   1.087       .  S
C774        C775   1.365       .  D
C775        C776   1.540       .  S
C775       C1301   1.445       .  S
C776        C780   1.540       .  S
C776        C778   1.535       .  S
C776        H782   1.112       .  S
C777        H783   1.087       .  S
C777        C778   1.361       .  D
C778       C1315   1.440       .  S
C779        H784   1.087       .  S
C779        C780   1.365       .  D
C780       C1305   1.444       .  S
C785        C786   1.532       .  S
C785        C791   1.532       .  S
C785        C789   1.533       .  S
C785       C1332   1.469       .  S
C786        H793   1.087       .  S
C786        C787   1.365       .  D
C787        C788   1.540       .  S
C787       C1293   1.441       .  S
C788        C792   1.536       .  S
C788        C790   1.541       .  S
C788        H794   1.111       .  S
C789        H795   1.087       .  S
C789        C790   1.366       .  D
C790       C1295   1.444       .  S
C791        H796   1.087       .  S
C791        C792   1.360       .  D
C792       C1292   1.442       .  S
C797        C798   1.532       .  S
C797        C803   1.535       .  S
C797        C801   1.534       .  S
C797       C1320   1.471       .  S
C798        H805   1.086       .  S
C798        C799   1.362       .  D
C799        C800   1.535       .  S
C799       C1287   1.441       .  S
C800        C804   1.536       .  S
C800        C802   1.539       .  S
C800        H806   1.112       .  S
C801        H807   1.086       .  S
C801        C802   1.367       .  D
C802       C1290   1.443       .  S
C803        H808   1.087       .  S
C803        C804   1.366       .  D
C804       C1294   1.441       .  S
C809        C810   1.532       .  S
C809        C815   1.535       .  S
C809        C813   1.535       .  S
C809       C1310   1.472       .  S
C810        H817   1.086       .  S
C810        C811   1.362       .  D
C811        C812   1.536       .  S
C811       C1291   1.442       .  S
C812        C816   1.537       .  S
C812        C814   1.540       .  S
C812        H818   1.112       .  S
C813        H819   1.086       .  S
C813        C814   1.367       .  D
C814       C1285   1.444       .  S
C815        H820   1.087       .  S
C815        C816   1.366       .  D
C816       C1283   1.442       .  S
C821        C822   1.533       .  S
C821        C827   1.531       .  S
C821        C825   1.533       .  S
C821       C1297   1.468       .  S
C822        H829   1.087       .  S
C822        C823   1.365       .  D
C823        C824   1.540       .  S
C823       C1284   1.442       .  S
C824        C828   1.536       .  S
C824        C826   1.541       .  S
C824        H830   1.111       .  S
C825        H831   1.087       .  S
C825        C826   1.366       .  D
C826       C1281   1.443       .  S
C827        H832   1.087       .  S
C827        C828   1.360       .  D
C828       C1288   1.441       .  S
C833        C834   1.532       .  S
C833        C839   1.535       .  S
C833        C837   1.534       .  S
C833       C1369   1.472       .  S
C834        H841   1.086       .  S
C834        C835   1.361       .  D
C835        C836   1.536       .  S
C835       C1275   1.442       .  S
C836        C840   1.536       .  S
C836        C838   1.540       .  S
C836        H842   1.112       .  S
C837        H843   1.086       .  S
C837        C838   1.367       .  D
C838       C1279   1.444       .  S
C839        H844   1.087       .  S
C839        C840   1.366       .  D
C840       C1278   1.441       .  S
C845        C846   1.532       .  S
C845        C851   1.532       .  S
C845        C849   1.533       .  S
C845       C1360   1.468       .  S
C846        H853   1.087       .  S
C846        C847   1.365       .  D
C847        C848   1.540       .  S
C847       C1277   1.441       .  S
C848        C852   1.536       .  S
C848        C850   1.541       .  S
C848        H854   1.111       .  S
C849        H855   1.087       .  S
C849        C850   1.366       .  D
C850       C1273   1.443       .  S
C851        H856   1.087       .  S
C851        C852   1.361       .  D
C852       C1271   1.441       .  S
C857        C858   1.532       .  S
C857        C863   1.532       .  S
C857        C861   1.533       .  S
C857       C1347   1.468       .  S
C858        H865   1.087       .  S
C858        C859   1.365       .  D
C859        C860   1.540       .  S
C859       C1268   1.441       .  S
C860        C864   1.536       .  S
C860        C862   1.541       .  S
C860        H866   1.112       .  S
C861        H867   1.087       .  S
C861        C862   1.366       .  D
C862       C1270   1.442       .  S
C863        H868   1.087       .  S
C863        C864   1.360       .  D
C864       C1276   1.442   1_545  S
C869        C870   1.532       .  S
C869        C875   1.535       .  S
C869        C873   1.535       .  S
C869       C1340   1.472       .  S
C870        H877   1.086       .  S
C870        C871   1.361       .  D
C871        C872   1.536       .  S
C871       C1272   1.441   1_545  S
C872        C876   1.537       .  S
C872        C874   1.540       .  S
C872        H878   1.112       .  S
C873        H879   1.086       .  S
C873        C874   1.367       .  D
C874       C1265   1.444       .  S
C875        H880   1.087       .  S
C875        C876   1.366       .  D
C876       C1267   1.441       .  S
C881        C882   1.532       .  S
C881        C887   1.532       .  S
C881        C885   1.533       .  S
C881       C1373   1.468       .  S
C882        H889   1.087       .  S
C882        C883   1.365       .  D
C883        C884   1.540       .  S
C883       C1262   1.442       .  S
C884        C888   1.536       .  S
C884        C886   1.541       .  S
C884        H890   1.112       .  S
C885        H891   1.087       .  S
C885        C886   1.366       .  D
C886       C1264   1.443       .  S
C887        H892   1.087       .  S
C887        C888   1.360       .  D
C888       C1259   1.441       .  S
C893        C894   1.532       .  S
C893        C899   1.535       .  S
C893        C897   1.534       .  S
C893       C1361   1.472       .  S
C894        H901   1.086       .  S
C894        C895   1.362       .  D
C895        C896   1.535       .  S
C895       C1255   1.441       .  S
C896        C900   1.536       .  S
C896        C898   1.540       .  S
C896        H902   1.112       .  S
C897        H903   1.086       .  S
C897        C898   1.367       .  D
C898       C1257   1.444       .  S
C899        H904   1.087       .  S
C899        C900   1.366       .  D
C900       C1261   1.442       .  S
C905        C906   1.532       .  S
C905        C911   1.535       .  S
C905        C909   1.534       .  S
C905       C1351   1.472       .  S
C906        H913   1.086       .  S
C906        C907   1.362       .  D
C907        C908   1.535       .  S
C907       C1260   1.441   1_545  S
C908        C912   1.536       .  S
C908        C910   1.539       .  S
C908        H914   1.112       .  S
C909        H915   1.086       .  S
C909        C910   1.366       .  D
C910       C1254   1.442       .  S
C911        H916   1.087       .  S
C911        C912   1.366       .  D
C912       C1251   1.442       .  S
C917        C918   1.532       .  S
C917        C923   1.531       .  S
C917        C921   1.533       .  S
C917       C1344   1.469       .  S
C918        H925   1.087       .  S
C918        C919   1.365       .  D
C919        C920   1.540       .  S
C919       C1252   1.442       .  S
C920        C924   1.536       .  S
C920        C922   1.541       .  S
C920        H926   1.111       .  S
C921        H927   1.087       .  S
C921        C922   1.367       .  D
C922       C1249   1.444       .  S
C923        H928   1.087       .  S
C923        C924   1.360       .  D
C924       C1256   1.441   1_545  S
In929       O931   2.262       .  S
In929       O932   2.241       .  S
In929       O940   2.254       .  S
In929       O934   2.252       .  S
In929       O936   2.263       .  S
In929       O937   2.256       .  S
In929       O938   2.232       .  S
In929       O941   2.248       .  S
C930        O936   1.261       .  A
C930        O938   1.258       .  A
C930       C1243   1.435       .  S
O931        C939   1.260       .  A
O932        C939   1.258       .  A
C933        O940   1.259       .  A
C933        O934   1.258       .  A
C933       C1248   1.437       .  S
C935        O937   1.260       .  A
C935        O941   1.259       .  A
C935       C1245   1.439       .  S
C939       C1296   1.438       .  S
In942       O944   2.249       .  S
In942       O945   2.252       .  S
In942       O953   2.256       .  S
In942       O947   2.250       .  S
In942       O949   2.263       .  S
In942       O950   2.242       .  S
In942       O951   2.229       .  S
In942       O954   2.258       .  S
C943        O949   1.261       .  A
C943        O951   1.257       .  A
C943       C1240   1.435   1_545  S
O944        C952   1.260       .  A
O945        C952   1.260       .  A
C946        O953   1.259       .  A
C946        O947   1.258       .  A
C946       C1247   1.437       .  S
C948        O950   1.257       .  A
C948        O954   1.259       .  A
C948       C1253   1.436       .  S
C952       C1242   1.438       .  S
In955       O957   2.248       .  S
In955       O958   2.254       .  S
In955       O966   2.256       .  S
In955       O960   2.250       .  S
In955       O962   2.262       .  S
In955       O963   2.241       .  S
In955       O964   2.229       .  S
In955       O967   2.261       .  S
C956        O962   1.261       .  A
C956        O964   1.257       .  A
C956       C1236   1.434       .  S
O957        C965   1.260       .  A
O958        C965   1.260       .  A
C959        O966   1.259       .  A
C959        O960   1.258       .  A
C959       C1237   1.437       .  S
C961        O963   1.257       .  A
C961        O967   1.260       .  A
C961       C1289   1.436       .  S
C965       C1246   1.439       .  S
In968       O970   2.261       .  S
In968       O971   2.241       .  S
In968       O979   2.254       .  S
In968       O973   2.251       .  S
In968       O975   2.263       .  S
In968       O976   2.254       .  S
In968       O977   2.232       .  S
In968       O980   2.249       .  S
C969        O975   1.261       .  A
C969        O977   1.258       .  A
C969       C1234   1.436   1_545  S
O970        C978   1.260       .  A
O971        C978   1.258       .  A
C972        O979   1.259       .  A
C972        O973   1.258       .  A
C972       C1238   1.437       .  S
C974        O976   1.260       .  A
C974        O980   1.259       .  A
C974       C1241   1.438       .  S
C978       C1250   1.437       .  S
In981       O983   2.263       .  S
In981       O984   2.242       .  S
In981       O992   2.255       .  S
In981       O986   2.252       .  S
In981       O988   2.262       .  S
In981       O989   2.256       .  S
In981       O990   2.232       .  S
In981       O993   2.250       .  S
C982        O988   1.261       .  A
C982        O990   1.257       .  A
C982       C1227   1.434       .  S
O983        C991   1.260       .  A
O984        C991   1.258       .  A
C985        O992   1.259       .  A
C985        O986   1.258       .  A
C985       C1232   1.438       .  S
C987        O989   1.261       .  A
C987        O993   1.260       .  A
C987       C1230   1.440       .  S
C991       C1225   1.438       .  S
In994       O996   2.251       .  S
In994       O997   2.254       .  S
In994      O1005   2.260       .  S
In994       O999   2.252       .  S
In994      O1001   2.264       .  S
In994      O1002   2.244       .  S
In994      O1003   2.230       .  S
In994      O1006   2.258       .  S
C995       O1001   1.262       .  A
C995       O1003   1.258       .  A
C995       C1233   1.435       .  S
O996       C1004   1.259       .  A
O997       C1004   1.260       .  A
C998       O1005   1.259       .  A
C998        O999   1.258       .  A
C998       C1231   1.439       .  S
C1000      O1002   1.258       .  A
C1000      O1006   1.260       .  A
C1000      C1258   1.437       .  S
C1004      C1223   1.438       .  S
In1007     O1009   2.253       .  S
In1007     O1010   2.258       .  S
In1007     O1018   2.258       .  S
In1007     O1012   2.250       .  S
In1007     O1014   2.263       .  S
In1007     O1015   2.242       .  S
In1007     O1016   2.230       .  S
In1007     O1019   2.262       .  S
C1008      O1014   1.261       .  A
C1008      O1016   1.258       .  A
C1008      C1219   1.434       .  S
O1009      C1017   1.259       .  A
O1010      C1017   1.260       .  A
C1011      O1018   1.259       .  A
C1011      O1012   1.258       .  A
C1011      C1221   1.437       .  S
C1013      O1015   1.257       .  A
C1013      O1019   1.260       .  A
C1013      C1217   1.437       .  S
C1017      C1229   1.441       .  S
In1020     O1022   2.260       .  S
In1020     O1023   2.242       .  S
In1020     O1031   2.253       .  S
In1020     O1025   2.250       .  S
In1020     O1027   2.262       .  S
In1020     O1028   2.255       .  S
In1020     O1029   2.232       .  S
In1020     O1032   2.248       .  S
C1021      O1027   1.261       .  A
C1021      O1029   1.258       .  A
C1021      C1239   1.435       .  S
O1022      C1030   1.260       .  A
O1023      C1030   1.258       .  A
C1024      O1031   1.259       .  A
C1024      O1025   1.258       .  A
C1024      C1222   1.437       .  S
C1026      O1028   1.260       .  A
C1026      O1032   1.259       .  A
C1026      C1224   1.438       .  S
C1030      C1263   1.437       .  S
In1033     O1035   2.262       .  S
In1033     O1036   2.239       .  S
In1033     O1044   2.252       .  S
In1033     O1038   2.250       .  S
In1033     O1040   2.261       .  S
In1033     O1041   2.252       .  S
In1033     O1042   2.230       .  S
In1033     O1045   2.247       .  S
C1034      O1040   1.261       .  A
C1034      O1042   1.258       .  A
C1034      C1235   1.434       .  S
O1035      C1043   1.260       .  A
O1036      C1043   1.257       .  A
C1037      O1044   1.259       .  A
C1037      O1038   1.258       .  A
C1037      C1216   1.437       .  S
C1039      O1041   1.260       .  A
C1039      O1045   1.259       .  A
C1039      C1214   1.437       .  S
C1043      C1282   1.436       .  S
In1046     O1048   2.250       .  S
In1046     O1049   2.256       .  S
In1046     O1057   2.257       .  S
In1046     O1051   2.250       .  S
In1046     O1053   2.261       .  S
In1046     O1054   2.244       .  S
In1046     O1055   2.228       .  S
In1046     O1058   2.260       .  S
C1047      O1053   1.261       .  A
C1047      O1055   1.258       .  A
C1047      C1210   1.434   1_545  S
O1048      C1056   1.259       .  A
O1049      C1056   1.260       .  A
C1050      O1057   1.259       .  A
C1050      O1051   1.258       .  A
C1050      C1215   1.437       .  S
C1052      O1054   1.258       .  A
C1052      O1058   1.260       .  A
C1052      C1266   1.438       .  S
C1056      C1212   1.439       .  S
In1059     O1061   2.248       .  S
In1059     O1062   2.252       .  S
In1059     O1070   2.259       .  S
In1059     O1064   2.254       .  S
In1059     O1066   2.263       .  S
In1059     O1067   2.245       .  S
In1059     O1068   2.230       .  S
In1059     O1071   2.259       .  S
C1060      O1066   1.262       .  A
C1060      O1068   1.258       .  A
C1060      C1244   1.435       .  S
O1061      C1069   1.260       .  A
O1062      C1069   1.260       .  A
C1063      O1070   1.258       .  A
C1063      O1064   1.258       .  A
C1063      C1208   1.439       .  S
C1065      O1067   1.258       .  A
C1065      O1071   1.260       .  A
C1065      C1286   1.438       .  S
C1069      C1213   1.437       .  S
In1072     O1074   2.262       .  S
In1072     O1075   2.240       .  S
In1072     O1083   2.254       .  S
In1072     O1077   2.251       .  S
In1072     O1079   2.260       .  S
In1072     O1080   2.255       .  S
In1072     O1081   2.231       .  S
In1072     O1084   2.249       .  S
C1073      O1079   1.261       .  A
C1073      O1081   1.258       .  A
C1073      C1205   1.434   1_545  S
O1074      C1082   1.260       .  A
O1075      C1082   1.257       .  A
C1076      O1083   1.259       .  A
C1076      O1077   1.258       .  A
C1076      C1207   1.438       .  S
C1078      O1080   1.260       .  A
C1078      O1084   1.259       .  A
C1078      C1211   1.439       .  S
C1082      C1269   1.436       .  S
In1085     O1087   2.263       .  S
In1085     O1088   2.240       .  S
In1085     O1096   2.254       .  S
In1085     O1090   2.252       .  S
In1085     O1092   2.262       .  S
In1085     O1093   2.256       .  S
In1085     O1094   2.228       .  S
In1085     O1097   2.249       .  S
C1086      O1092   1.261       .  A
C1086      O1094   1.258       .  A
C1086      C1209   1.434       .  S
O1087      C1095   1.260       .  A
O1088      C1095   1.257       .  A
C1089      O1096   1.259       .  A
C1089      O1090   1.259       .  A
C1089      C1203   1.438       .  S
C1091      O1093   1.260       .  A
C1091      O1097   1.259       .  A
C1091      C1201   1.440       .  S
C1095      C1274   1.437       .  S
In1098     O1100   2.249       .  S
In1098     O1101   2.253       .  S
In1098     O1109   2.256       .  S
In1098     O1103   2.254       .  S
In1098     O1105   2.262       .  S
In1098     O1106   2.245       .  S
In1098     O1107   2.229       .  S
In1098     O1110   2.261       .  S
C1099      O1105   1.261       .  A
C1099      O1107   1.257       .  A
C1099      C1228   1.434       .  S
O1100      C1108   1.260       .  A
O1101      C1108   1.261       .  A
C1102      O1109   1.259       .  A
C1102      O1103   1.258       .  A
C1102      C1204   1.439       .  S
C1104      O1106   1.257       .  A
C1104      O1110   1.259       .  A
C1104      C1197   1.438       .  S
C1108      C1199   1.438       .  S
In1111     O1113   2.250       .  S
In1111     O1114   2.255       .  S
In1111     O1122   2.256       .  S
In1111     O1116   2.252       .  S
In1111     O1118   2.263       .  S
In1111     O1119   2.244       .  S
In1111     O1120   2.227       .  S
In1111     O1123   2.260       .  S
C1112      O1118   1.261       .  A
C1112      O1120   1.257       .  A
C1112      C1206   1.433       .  S
O1113      C1121   1.260       .  A
O1114      C1121   1.260       .  A
C1115      O1122   1.258       .  A
C1115      O1116   1.258       .  A
C1115      C1195   1.437       .  S
C1117      O1119   1.257       .  A
C1117      O1123   1.260       .  A
C1117      C1280   1.437       .  S
C1121      C1202   1.440       .  S
In1124     O1126   2.264       .  S
In1124     O1127   2.239       .  S
In1124     O1135   2.252       .  S
In1124     O1129   2.250       .  S
In1124     O1131   2.264       .  S
In1124     O1132   2.252       .  S
In1124     O1133   2.229       .  S
In1124     O1136   2.248       .  S
C1125      O1131   1.261       .  A
C1125      O1133   1.257       .  A
C1125      C1220   1.434       .  S
O1126      C1134   1.260       .  A
O1127      C1134   1.257       .  A
C1128      O1135   1.259       .  A
C1128      O1129   1.259       .  A
C1128      C1196   1.437       .  S
C1130      O1132   1.260       .  A
C1130      O1136   1.260       .  A
C1130      C1200   1.438       .  S
C1134      C1194   1.436       .  S
C1137      C1138   1.535       .  S
C1137      C1143   1.532       .  S
C1137      C1141   1.535       .  S
C1137      C1336   1.471       .  S
C1138      H1145   1.086       .  S
C1138      C1139   1.367       .  D
C1139      C1140   1.539       .  S
C1139      C1218   1.444       .  S
C1140      C1144   1.535       .  S
C1140      C1142   1.535       .  S
C1140      H1146   1.112       .  S
C1141      H1147   1.087       .  S
C1141      C1142   1.366       .  D
C1142      C1192   1.440       .  S
C1143      H1148   1.086       .  S
C1143      C1144   1.361       .  D
C1144      C1190   1.441       .  S
C1149      C1150   1.531       .  S
C1149      C1155   1.532       .  S
C1149      C1153   1.533       .  S
C1149      C1324   1.468       .  S
C1150      H1157   1.088       .  S
C1150      C1151   1.364       .  D
C1151      C1152   1.541       .  S
C1151      C1191   1.440       .  S
C1152      C1156   1.537       .  S
C1152      C1154   1.541       .  S
C1152      H1158   1.112       .  S
C1153      H1159   1.087       .  S
C1153      C1154   1.367       .  D
C1154      C1226   1.444       .  S
C1155      H1160   1.087       .  S
C1155      C1156   1.360       .  D
C1156      C1187   1.442       .  S
C1161      C1162   1.533       .  S
C1161      C1167   1.532       .  S
C1161      C1165   1.533       .  S
C1161      C1314   1.468       .  S
C1162      H1169   1.087       .  S
C1162      C1163   1.365       .  D
C1163      C1164   1.539       .  S
C1163      C1185   1.441       .  S
C1164      C1168   1.536       .  S
C1164      C1166   1.540       .  S
C1164      H1170   1.112       .  S
C1165      H1171   1.087       .  S
C1165      C1166   1.366       .  D
C1166      C1193   1.442       .  S
C1167      H1172   1.087       .  S
C1167      C1168   1.360       .  D
C1168      C1189   1.440       .  S
C1173      C1174   1.532       .  S
C1173      C1179   1.535       .  S
C1173      C1177   1.534       .  S
C1173      C1304   1.472       .  S
C1174      H1181   1.086       .  S
C1174      C1175   1.362       .  D
C1175      C1176   1.536       .  S
C1175      C1188   1.442       .  S
C1176      C1180   1.537       .  S
C1176      C1178   1.540       .  S
C1176      H1182   1.112       .  S
C1177      H1183   1.086       .  S
C1177      C1178   1.367       .  D
C1178      C1198   1.444       .  S
C1179      H1184   1.087       .  S
C1179      C1180   1.366       .  D
C1180      C1186   1.441       .  S
C1187      C1188   1.206   1_655  T
C1189      C1190   1.205   1_455  T
C1193      C1194   1.206       .  T
C1195      C1196   1.207       .  T
C1197      C1198   1.207       .  T
C1199      C1200   1.208       .  T
C1201      C1202   1.208       .  T
C1203      C1204   1.208       .  T
C1205      C1206   1.205       .  T
C1207      C1208   1.208       .  T
C1209      C1210   1.205       .  T
C1211      C1212   1.208       .  T
C1213      C1214   1.207       .  T
C1215      C1216   1.207       .  T
C1217      C1218   1.207       .  T
C1219      C1220   1.205   1_655  T
C1221      C1222   1.207       .  T
C1223      C1224   1.208       .  T
C1225      C1226   1.207       .  T
C1227      C1228   1.205   1_655  T
C1229      C1230   1.209       .  T
C1231      C1232   1.208       .  T
C1233      C1234   1.206       .  T
C1235      C1236   1.205   1_455  T
C1237      C1238   1.207       .  T
C1239      C1240   1.205       .  T
C1241      C1242   1.207       .  T
C1243      C1244   1.206   1_655  T
C1245      C1246   1.208       .  T
C1247      C1248   1.207       .  T
C1249      C1250   1.207       .  T
C1253      C1254   1.206       .  T
C1255      C1256   1.205       .  T
C1257      C1258   1.207       .  T
C1259      C1260   1.205       .  T
C1263      C1264   1.207       .  T
C1265      C1266   1.208       .  T
C1269      C1270   1.206       .  T
C1271      C1272   1.206       .  T
C1273      C1274   1.207       .  T
C1275      C1276   1.206       .  T
C1279      C1280   1.207       .  T
C1281      C1282   1.206       .  T
C1285      C1286   1.207       .  T
C1287      C1288   1.205   1_655  T
C1289      C1290   1.206       .  T
C1291      C1292   1.206   1_455  T
C1295      C1296   1.207       .  T
C1297      C1298   1.206       .  T
C1298      C1299   1.412       .  S
C1299      C1300   1.206       .  T
C1301      C1302   1.208       .  T
C1302      C1303   1.416       .  S
C1303      C1304   1.208       .  T
C1305      C1306   1.207       .  T
C1307      C1308   1.208       .  T
C1308      C1309   1.416       .  S
C1309      C1310   1.208       .  T
C1311      C1312   1.206       .  T
C1312      C1313   1.412       .  S
C1313      C1314   1.206       .  T
C1315      C1316   1.205   1_455  T
C1317      C1318   1.208       .  T
C1318      C1319   1.415       .  S
C1319      C1320   1.208       .  T
C1321      C1322   1.206       .  T
C1322      C1323   1.412       .  S
C1323      C1324   1.206       .  T
C1325      C1326   1.205   1_455  T
C1327      C1328   1.208       .  T
C1329      C1330   1.206       .  T
C1330      C1331   1.412       .  S
C1331      C1332   1.206       .  T
C1333      C1334   1.208       .  T
C1334      C1335   1.415       .  S
C1335      C1336   1.208       .  T
C1337      C1338   1.208       .  T
C1338      C1339   1.416       .  S
C1339      C1340   1.208       .  T
C1341      C1342   1.207       .  T
C1342      C1343   1.413       .  S
C1343      C1344   1.207       .  T
C1345      C1346   1.208       .  T
C1347      C1348   1.206       .  T
C1348      C1349   1.412       .  S
C1349      C1350   1.206       .  T
C1351      C1352   1.208       .  T
C1352      C1353   1.415       .  S
C1353      C1354   1.208       .  T
C1355      C1356   1.205       .  T
C1357      C1358   1.206       .  T
C1358      C1359   1.412       .  S
C1359      C1360   1.206       .  T
C1361      C1362   1.208       .  T
C1362      C1363   1.416       .  S
C1363      C1364   1.208       .  T
C1365      C1366   1.205       .  T
C1367      C1368   1.208       .  T
C1369      C1370   1.208       .  T
C1370      C1371   1.416       .  S
C1371      C1372   1.208       .  T
C1373      C1374   1.206       .  T
C1374      C1375   1.412       .  S
C1375      C1376   1.206       .  T
