geometry optimzed in LAMMPS
_audit_creation_date              2020-11-30 
_audit_creation_method            'lammps2cif' 
_symmetry_space_group_name_H-M    'P1' 
_symmetry_Int_Tables_number       1 
_symmetry_cell_setting            triclinic 
loop_ 
_symmetry_equiv_pos_as_xyz 
  x,y,z 
_cell_length_a                    27.39100969 
_cell_length_b                    27.36843743388782 
_cell_length_c                    45.33540180342893 
_cell_angle_alpha                 90.03251604633508 
_cell_angle_beta                  90.00684900614851 
_cell_angle_gamma                 120.05540364176083 
loop_ 
_atom_site_label 
_atom_site_type_symbol 
_atom_site_fract_x 
_atom_site_fract_y 
_atom_site_fract_z 
_atom_site_charge 
C1          C  0.45397882  0.43516332  0.15202128     0.81600
N2          N  0.45393310  0.43497762  0.12208819    -0.76700
C3          C  0.49720246  0.47750922  0.10697753     0.84100
N4          N  0.54054084  0.52013843  0.12201326    -0.76600
C5          C  0.54066285  0.52028383  0.15193142     0.84200
N6          N  0.49738245  0.47779684  0.16693449    -0.78400
C7          C  0.45492957  0.43391119  0.02953652     0.81600
N8          N  0.45486865  0.43391782  0.05946766    -0.76700
C9          C  0.49723358  0.47742696  0.07456489     0.84100
N10         N  0.53963863  0.52093201  0.05951393    -0.76600
C11         C  0.53967126  0.52098455  0.02958558     0.84200
N12         N  0.49731713  0.47745581  0.01461237    -0.78400
C13         C  0.49694768  0.96457397  0.15151765     0.80900
N14         N  0.49845683  0.96753405  0.12161081    -0.76700
C15         C  0.45582221  0.96802867  0.10649725     0.84100
N16         N  0.41162821  0.96544603  0.12150997    -0.76600
C17         C  0.41001139  0.96243293  0.15139475     0.84200
N18         N  0.45268104  0.96197630  0.16639116    -0.78400
C19         C  0.50057869  0.97258703  0.02894318     0.81600
N20         N  0.50031270  0.97158611  0.05888662    -0.76700
C21         C  0.45688503  0.97033758  0.07407328     0.84100
N22         N  0.41367779  0.96991721  0.05909095    -0.76600
C23         C  0.41390305  0.97090969  0.02917026     0.84200
N24         N  0.45728842  0.97209590  0.01411274    -0.78400
C25         C  0.96796247  0.46940413  0.15190900     0.81600
N26         N  0.96972942  0.47130217  0.12197460    -0.76700
C27         C  0.97097437  0.42946938  0.10638189     0.84100
N28         N  0.97044193  0.38580432  0.12092101    -0.76600
C29         C  0.96863581  0.38382455  0.15080520     0.84200
N30         N  0.96741969  0.42564292  0.16630188    -0.78400
C31         C  0.97291099  0.47479153  0.02922063     0.81600
N32         N  0.97425387  0.43274401  0.01401574    -0.76700
C33         C  0.97479428  0.38986427  0.02872686     0.84100
N34         N  0.97386904  0.38900330  0.05863797    -0.76600
C35         C  0.97251089  0.43099520  0.07397273     0.84200
N36         N  0.97202953  0.47391747  0.05915786    -0.78400
O37         O  0.85023000  0.00439619  0.30676331    -0.86800
C38         C  0.13714678  0.11625191  0.38345270     1.13300
O39         O  0.91450376  0.95553678  0.34029350    -1.34600
O40         O  0.10025262  0.12603047  0.30762565    -0.88300
O41         O  0.80153891  0.90974604  0.30694491    -0.88900
O42         O  0.91499149  0.89675799  0.27888027    -0.77800
O43         O  0.97519819  0.06747659  0.31221261    -0.99800
C44         C  0.07394430  0.95184621  0.28668866     1.23300
O45         O  0.97167637  0.89485814  0.34066606    -1.34700
Mn46       Mn  0.97260250  0.95451539  0.37215668     1.82100
O47         O  0.03064166  0.95291924  0.27909773    -0.76800
O48         O  0.14592112  0.07714217  0.30766305    -0.86200
C49         C  0.07355775  0.95305337  0.39492542     1.14400
C50         C  0.13779995  0.11596719  0.29786141     1.09100
O51         O  0.91386605  0.89707407  0.40210357    -0.77800
O52         O  0.03230251  0.01279841  0.34056225    -1.31500
O53         O  0.85961413  0.84358812  0.36828908    -0.97000
C54         C  0.96974748  0.78884034  0.29826345     1.07800
Mn55       Mn  0.11170548  0.01565723  0.34072539     1.48600
O56         O  0.92271092  0.78082136  0.30784817    -0.86200
Mn57       Mn  0.83368450  0.88054803  0.34019435     1.49600
O58         O  0.84962945  0.00475757  0.37281767    -0.90100
C59         C  0.97505181  0.05688621  0.28606408     1.21000
C60         C  0.81090369  0.95779691  0.38270927     1.13100
Mn61       Mn  0.97312543  0.95427232  0.30890304     1.81000
O62         O  0.08348270  0.95251137  0.36875042    -0.95200
Mn63       Mn  0.91159584  0.03214667  0.33999481     1.49300
C64         C  0.81159321  0.95725933  0.29694361     1.09600
Mn65       Mn  0.04653924  0.88895270  0.34096792     1.49900
C66         C  0.96915794  0.79012226  0.38394102     1.12500
O67         O  0.86006939  0.84331457  0.31247976    -1.01000
O68         O  0.14563546  0.07764726  0.37364117    -0.90700
C69         C  0.87071034  0.85316440  0.28631954     1.23800
O70         O  0.08391593  0.95191925  0.31290806    -1.01400
O71         O  0.09948155  0.12605157  0.37359370    -0.88800
O72         O  0.01680872  0.82766419  0.37416957    -0.88400
O73         O  0.80104931  0.91010605  0.37304816    -0.88400
Mn74       Mn  0.03811415  0.09363705  0.34038928     1.47900
O75         O  0.02994560  0.95370866  0.40234812    -0.76900
C76         C  0.86962790  0.85348515  0.39450254     1.16800
O77         O  0.97448953  0.01258678  0.27877487    -0.75600
O78         O  0.97345263  0.01318590  0.40195934    -0.75200
Mn79       Mn  0.89503443  0.81534076  0.34060768     1.51100
O80         O  0.01727827  0.82659926  0.30813653    -0.87600
O81         O  0.97466686  0.06756073  0.36810846    -0.95100
O82         O  0.92222038  0.78146965  0.37385926    -0.90100
C83         C  0.97427319  0.05745612  0.39432939     1.14600
C84         C  0.97721880  0.26205732  0.48324890     0.18400
C85         C  0.92584526  0.21429520  0.47566074    -0.10700
C86         C  0.92533845  0.17067379  0.45931690    -0.11500
C87         C  0.97620937  0.17458195  0.45050663     0.20000
C88         C  0.02761181  0.22210743  0.45831386    -0.13600
C89         C  0.02811188  0.26573983  0.47466238    -0.11900
C90         C  0.97558705  0.13105783  0.43239121     0.00900
C91         C  0.97495219  0.09624961  0.41583826    -0.31900
C92         C  0.97760392  0.30751674  0.49946716     0.02300
C93         C  0.97575086  0.34508793  0.01268620    -0.33500
H94         H  0.88624477  0.21100793  0.48215922     0.13400
H95         H  0.88534900  0.13424653  0.45328230     0.13200
H96         H  0.06719605  0.22569307  0.45149948     0.13100
H97         H  0.06808027  0.30248065  0.48038503     0.12100
C98         C  0.96940048  0.68264326  0.44590521     0.18400
C99         C  0.91892387  0.63878565  0.45742887    -0.10700
C100        C  0.91975603  0.59783358  0.47554785    -0.11500
C101        C  0.97105387  0.60059103  0.48219952     0.20000
C102        C  0.02157606  0.64494448  0.47104026    -0.13600
C103        C  0.02074766  0.68586554  0.45293218    -0.11900
C104        C  0.97177666  0.55699350  0.49961250     0.00900
C105        C  0.97202131  0.51992456  0.01357658    -0.31900
C106        C  0.96840073  0.72258306  0.42564450     0.02300
C107        C  0.96836303  0.75440467  0.40728678    -0.33500
H108        H  0.87895976  0.63575313  0.45202941     0.13400
H109        H  0.87993269  0.56340752  0.98359520     0.13200
H110        H  0.06145596  0.64741851  0.47598168     0.13100
H111        H  0.05999415  0.71944962  0.44402715     0.12100
C112        C  0.97200975  0.16922968  0.22822978     0.18400
C113        C  0.92038712  0.16607722  0.22198307    -0.10700
C114        C  0.91908196  0.20837863  0.20527124    -0.11500
C115        C  0.96939934  0.25403744  0.19474671     0.20000
C116        C  0.02091251  0.25664988  0.20056001    -0.13600
C117        C  0.02222618  0.21436588  0.21727460    -0.11900
C118        C  0.96842579  0.29906026  0.17880733     0.00900
C119        C  0.96825641  0.33758204  0.16597982    -0.31900
C120        C  0.97366342  0.12776116  0.24708043     0.02300
C121        C  0.97469520  0.09458146  0.26419669    -0.33500
H122        H  0.88131085  0.13146125  0.23042544     0.13400
H123        H  0.87901381  0.20592525  0.20093720     0.13200
H124        H  0.06007966  0.29177037  0.19255764     0.13100
H125        H  0.06239073  0.21734143  0.22205462     0.12100
C126        C  0.96586051  0.59269018  0.20180281     0.18400
C127        C  0.97526131  0.64396567  0.18987357    -0.10700
C128        C  0.97578944  0.68539047  0.20827615    -0.11500
C129        C  0.96690529  0.67569172  0.23868466     0.20000
C130        C  0.95726279  0.62432413  0.25053876    -0.13600
C131        C  0.95674497  0.58298834  0.23217460    -0.11900
C132        C  0.96815752  0.71827137  0.25794415     0.00900
C133        C  0.96906483  0.75184815  0.27554248    -0.31900
C134        C  0.96622025  0.55018773  0.18312778     0.02300
C135        C  0.96686127  0.51370371  0.16843503    -0.33500
H136        H  0.98241892  0.65199368  0.16642706     0.13400
H137        H  0.98333648  0.72493961  0.19884626     0.13200
H138        H  0.95037822  0.61632489  0.27400372     0.13100
H139        H  0.94948882  0.54358346  0.24167251     0.12100
C140        C  0.62272824  0.96661482  0.47990579     0.18400
C141        C  0.67874816  0.98929849  0.48930219    -0.10700
C142        C  0.71846126  0.98671824  0.47086857    -0.11500
C143        C  0.70226108  0.96137273  0.44298858     0.20000
C144        C  0.64619032  0.93842523  0.43372362    -0.13600
C145        C  0.60657497  0.94102839  0.45210910    -0.11900
C146        C  0.74303399  0.95992853  0.42344701     0.00900
C147        C  0.77514618  0.95876788  0.40560911    -0.31900
C148        C  0.58170115  0.96985465  0.49846585     0.02300
C149        C  0.54561132  0.97225849  0.01284782    -0.33500
H150        H  0.69175900  0.00996455  0.01066007     0.13400
H151        H  0.76172940  0.00476967  0.47824097     0.13200
H152        H  0.63318719  0.91886345  0.41219672     0.13100
H153        H  0.56343339  0.92336897  0.44458849     0.12100
C154        C  0.28158714  0.96265678  0.48352577     0.18400
C155        C  0.26206311  0.00026551  0.48930782    -0.10700
C156        C  0.21722113  0.99713793  0.47295202    -0.11500
C157        C  0.19163787  0.95630902  0.45077961     0.20000
C158        C  0.21090440  0.91845710  0.44515633    -0.13600
C159        C  0.25573404  0.92160847  0.46148464    -0.11900
C160        C  0.14718876  0.95451448  0.43298583     0.00900
C161        C  0.11204644  0.95350889  0.41656110    -0.31900
C162        C  0.32841080  0.96640751  0.49994023     0.02300
C163        C  0.36748650  0.96907959  0.01343101    -0.33500
H164        H  0.28087820  0.03163672  0.00654242     0.13400
H165        H  0.20288889  0.02681851  0.47738887     0.13200
H166        H  0.19162770  0.88688307  0.42797575     0.13100
H167        H  0.27046336  0.89232745  0.45679938     0.12100
C168        C  0.70348975  0.95800687  0.23528182     0.18400
C169        C  0.71735165  0.00577962  0.21808185    -0.10700
C170        C  0.67655179  0.00693615  0.19993526    -0.11500
C171        C  0.62169477  0.96035693  0.19891594     0.20000
C172        C  0.60813619  0.91229654  0.21577259    -0.13600
C173        C  0.64889431  0.91113151  0.23389497    -0.11900
C174        C  0.57881773  0.96237271  0.18136146     0.00900
C175        C  0.54187175  0.96362467  0.16744518    -0.31900
C176        C  0.74419501  0.95794397  0.25543145     0.02300
C177        C  0.77618174  0.95771332  0.27367846    -0.33500
H178        H  0.75934275  0.04237348  0.21904947     0.13400
H179        H  0.68753576  0.04437640  0.18704592     0.13200
H180        H  0.56588288  0.87606766  0.21521999     0.13100
H181        H  0.63759784  0.87404661  0.24716885     0.12100
C182        C  0.27826088  0.95617102  0.19693684     0.18400
C183        C  0.28788229  0.00288605  0.21398558    -0.10700
C184        C  0.24411744  0.00133064  0.23060525    -0.11500
C185        C  0.19040786  0.95305696  0.23028840     0.20000
C186        C  0.18056029  0.90642755  0.21305438    -0.13600
C187        C  0.22439712  0.90800088  0.19639264    -0.11900
C188        C  0.14629773  0.95105075  0.24847861     0.00900
C189        C  0.11184966  0.95088182  0.26512697    -0.31900
C190        C  0.32396399  0.95756344  0.18045971     0.02300
C191        C  0.36306397  0.95956640  0.16711656    -0.33500
H192        H  0.32932005  0.04033048  0.21461287     0.13400
H193        H  0.25228850  0.03755188  0.24391844     0.13200
H194        H  0.13926081  0.86877431  0.21272251     0.13100
H195        H  0.21644594  0.87159195  0.18331934     0.12100
C196        C  0.66635373  0.65058677  0.48354009     0.18400
C197        C  0.71863368  0.65330728  0.48079039    -0.10700
C198        C  0.76183102  0.69646766  0.46424956    -0.11500
C199        C  0.75295221  0.73715666  0.45041969     0.20000
C200        C  0.70076501  0.73457190  0.45328242    -0.13600
C201        C  0.65758015  0.69141242  0.46980501    -0.11900
C202        C  0.79649420  0.78032983  0.43242106     0.00900
C203        C  0.83113044  0.81500425  0.41599230    -0.31900
C204        C  0.62154468  0.60554901  0.50010118     0.02300
C205        C  0.58453814  0.56699472  0.01374517    -0.33500
H206        H  0.72585613  0.62190020  0.49125943     0.13400
H207        H  0.80189142  0.69784291  0.46204749     0.13200
H208        H  0.69333139  0.76562713  0.44255353     0.13100
H209        H  0.61731605  0.68967901  0.47172073     0.12100
C210        C  0.32980197  0.30664841  0.48150672     0.18400
C211        C  0.34356519  0.27442510  0.46291108    -0.10700
C212        C  0.30247250  0.23338898  0.44452214    -0.11500
C213        C  0.24739050  0.22434564  0.44463012     0.20000
C214        C  0.23344051  0.25616887  0.46344014    -0.13600
C215        C  0.27456840  0.29722843  0.48185246    -0.11900
C216        C  0.20602084  0.18403592  0.42458337     0.00900
C217        C  0.17334505  0.15197197  0.40651386    -0.31900
C218        C  0.37279476  0.35050374  0.49947086     0.02300
C219        C  0.41014828  0.38799539  0.01359242    -0.33500
H220        H  0.38628445  0.28095736  0.96242982     0.13400
H221        H  0.31379668  0.20921440  0.42997619     0.13200
H222        H  0.19104964  0.24972381  0.46360614     0.13100
H223        H  0.26350040  0.32202984  0.49606934     0.12100
C224        C  0.75707768  0.73551541  0.22993513     0.18400
C225        C  0.72276821  0.74682735  0.21159138    -0.10700
C226        C  0.67964682  0.70328046  0.19520265    -0.11500
C227        C  0.67063153  0.64825876  0.19713415     0.20000
C228        C  0.70533378  0.63708358  0.21525330    -0.13600
C229        C  0.74846814  0.68062640  0.23162543    -0.11900
C230        C  0.62516752  0.60314193  0.18097266     0.00900
C231        C  0.58665098  0.56529794  0.16768578    -0.31900
C232        C  0.79940135  0.77950360  0.24803487     0.02300
C233        C  0.83305379  0.81451831  0.26466931    -0.33500
H234        H  0.72889364  0.78906887  0.21024933     0.13400
H235        H  0.65301297  0.71236526  0.18128728     0.13200
H236        H  0.69869577  0.59468675  0.21693651     0.13100
H237        H  0.77461179  0.67139169  0.24585356     0.12100
C238        C  0.24861945  0.22488398  0.23730379     0.18400
C239        C  0.30585567  0.25145273  0.24488076    -0.10700
C240        C  0.34633505  0.29302740  0.22653752    -0.11500
C241        C  0.32984013  0.30830541  0.20050140     0.20000
C242        C  0.27262855  0.28136124  0.19272884    -0.13600
C243        C  0.23206279  0.23972222  0.21111661    -0.11900
C244        C  0.37176311  0.35233438  0.18221562     0.00900
C245        C  0.40857492  0.38994186  0.16797346    -0.31900
C246        C  0.20710220  0.18391960  0.25700416     0.02300
C247        C  0.17427940  0.15165185  0.27492171    -0.33500
H248        H  0.31911848  0.24044676  0.26511610     0.13400
H249        H  0.39042052  0.31360266  0.23278020     0.13200
H250        H  0.25938899  0.29288444  0.17265776     0.13100
H251        H  0.18789124  0.21958945  0.20509869     0.12100
C252        C  0.45349151  0.43587430  0.65204845     0.81600
N253        N  0.45340501  0.43560193  0.62211415    -0.76700
C254        C  0.49636129  0.47839604  0.60696872     0.84100
N255        N  0.53943018  0.52136874  0.62196795    -0.76600
C256        C  0.53957266  0.52161774  0.65188283     0.84200
N257        N  0.49662134  0.47886124  0.66692271    -0.78400
C258        C  0.45435002  0.43431721  0.52955648     0.81600
N259        N  0.45419050  0.43449809  0.55948697    -0.76700
C260        C  0.49644826  0.47815184  0.57455825     0.84100
N261        N  0.53885412  0.52161265  0.55948290    -0.76600
C262        C  0.53899403  0.52147647  0.52955534     0.84200
N263        N  0.49674057  0.47781212  0.51460833    -0.78400
C264        C  0.49639206  0.96364850  0.65155702     0.80900
N265        N  0.49800570  0.96665445  0.62165214    -0.76700
C266        C  0.45544455  0.96720945  0.60649600     0.84100
N267        N  0.41121137  0.96464114  0.62146741    -0.76600
C268        C  0.40948295  0.96157413  0.65135340     0.84200
N269        N  0.45208985  0.96106345  0.66638890    -0.78400
C270        C  0.50045226  0.97181247  0.52897762     0.81600
N271        N  0.50006322  0.97073071  0.55892266    -0.76700
C272        C  0.45664223  0.96958626  0.57406943     0.84100
N273        N  0.41357348  0.96936204  0.55904539    -0.76600
C274        C  0.41391551  0.97044002  0.52912538     0.84200
N275        N  0.45729130  0.97151769  0.51410693    -0.78400
C276        C  0.96950943  0.47066321  0.65180954     0.81600
N277        N  0.97111112  0.47224985  0.62187072    -0.76700
C278        C  0.97249204  0.43037230  0.60639417     0.84100
N279        N  0.97224366  0.38696315  0.62105301    -0.76600
C280        C  0.97060072  0.38529419  0.65094235     0.84200
N281        N  0.96924327  0.42715305  0.66632465    -0.78400
C282        C  0.97385483  0.47491401  0.52914154     0.81600
N283        N  0.97538844  0.43288514  0.51402483    -0.76700
C284        C  0.97623007  0.39024527  0.52882598     0.84100
N285        N  0.97541008  0.38960288  0.55874098    -0.76600
C286        C  0.97386875  0.43159208  0.57398366     0.84200
N287        N  0.97308653  0.47426690  0.55907646    -0.78400
O288        O  0.85016398  0.00469461  0.80695086    -0.86800
C289        C  0.13719559  0.11629075  0.88346969     1.13300
O290        O  0.91446582  0.95575358  0.84037315    -1.34600
O291        O  0.10019175  0.12631406  0.80770168    -0.88300
O292        O  0.80144287  0.91004551  0.80712330    -0.88900
O293        O  0.91481656  0.89717797  0.77886597    -0.77800
O294        O  0.97514525  0.06776655  0.81237966    -0.99800
C295        C  0.07373519  0.95204638  0.78655886     1.23300
O296        O  0.97162296  0.89505500  0.84059198    -1.34700
Mn297      Mn  0.97261704  0.95463811  0.87216186     1.82100
O298        O  0.03046719  0.95323715  0.77901644    -0.76800
O299        O  0.14575300  0.07732138  0.80758565    -0.86200
C300        C  0.07359928  0.95310722  0.89479712     1.14400
C301        C  0.13765720  0.11620143  0.79785125     1.09100
O302        O  0.91394444  0.89711769  0.90210408    -0.77800
O303        O  0.03225981  0.01298843  0.84057115    -1.31500
O304        O  0.85961753  0.84369282  0.86829284    -0.97000
C305        C  0.96963044  0.78919429  0.79802628     1.07800
Mn306      Mn  0.11163779  0.01580589  0.84062431     1.48600
O307        O  0.92260551  0.78117171  0.80763440    -0.86200
Mn308      Mn  0.83365077  0.88076159  0.84028527     1.49600
O309        O  0.84958790  0.00486150  0.87300406    -0.90100
C310        C  0.97501053  0.05729844  0.78621697     1.21000
C311        C  0.81087641  0.95787589  0.88288346     1.13100
Mn312      Mn  0.97302548  0.95456823  0.80890187     1.81000
O313        O  0.08346859  0.95261619  0.86861214    -0.95200
Mn314      Mn  0.91155712  0.03235756  0.84016830     1.49300
C315        C  0.81149720  0.95756600  0.79713806     1.09600
Mn316      Mn  0.04646982  0.88911485  0.84080852     1.49900
C317        C  0.96915734  0.79017583  0.88373746     1.12500
O318        O  0.86001350  0.84366959  0.81248192    -1.01000
O319        O  0.14567098  0.07773206  0.87357073    -0.90700
C320        C  0.87055244  0.85358579  0.78631842     1.23800
O321        O  0.08377149  0.95211079  0.81276953    -1.01400
O322        O  0.09950714  0.12612621  0.87368809    -0.88800
O323        O  0.01680077  0.82776788  0.87398288    -0.88400
O324        O  0.80105396  0.91020585  0.87320894    -0.88400
Mn325      Mn  0.03809693  0.09383912  0.84050968     1.47900
O326        O  0.03000999  0.95375129  0.90227570    -0.76900
C327        C  0.86969866  0.85353299  0.89450659     1.16800
O328        O  0.97438068  0.01299880  0.77885625    -0.75600
O329        O  0.97352160  0.01323693  0.90204848    -0.75200
Mn330      Mn  0.89498904  0.81554777  0.84050672     1.51100
O331        O  0.01716574  0.82685084  0.80793923    -0.87600
O332        O  0.97467331  0.06769364  0.86826457    -0.95100
O333        O  0.92221430  0.78152478  0.87366364    -0.90100
C334        C  0.97430198  0.05751606  0.89447381     1.14600
C335        C  0.97599585  0.26176734  0.98315277     0.18400
C336        C  0.92477192  0.21393971  0.97543563    -0.10700
C337        C  0.92457997  0.17036881  0.95919072    -0.11500
C338        C  0.97561459  0.17438966  0.95060938     0.20000
C339        C  0.02686202  0.22198061  0.95854839    -0.13600
C340        C  0.02704686  0.26555904  0.97479785    -0.11900
C341        C  0.97532209  0.13094171  0.93256327     0.00900
C342        C  0.97488156  0.09620549  0.91602439    -0.31900
C343        C  0.97609866  0.30716283  0.99929698     0.02300
C344        C  0.97730759  0.34545714  0.51286538    -0.33500
H345        H  0.88505007  0.21055925  0.98175922     0.13400
H346        H  0.88470619  0.13389295  0.95305000     0.13200
H347        H  0.06657185  0.22566223  0.95190899     0.13100
H348        H  0.06690396  0.30234678  0.98062696     0.12100
C349        C  0.96921466  0.68274375  0.94581930     0.18400
C350        C  0.91862769  0.63867312  0.95711686    -0.10700
C351        C  0.91934719  0.59776962  0.97532539    -0.11500
C352        C  0.97064266  0.60078412  0.98229957     0.20000
C353        C  0.02126960  0.64535823  0.97137267    -0.13600
C354        C  0.02055366  0.68623273  0.95317313    -0.11900
C355        C  0.97125867  0.55718460  0.99977102     0.00900
C356        C  0.97269779  0.51982209  0.51341800    -0.31900
C357        C  0.96835606  0.72264190  0.92546900     0.02300
C358        C  0.96837170  0.75443667  0.90707405    -0.33500
H359        H  0.87867095  0.63543539  0.95146971     0.13400
H360        H  0.88042426  0.56364389  0.48400421     0.13200
H361        H  0.06115127  0.64803294  0.97655839     0.13100
H362        H  0.05989087  0.71998638  0.94444940     0.12100
C363        C  0.97292498  0.17039836  0.72858828     0.18400
C364        C  0.92156409  0.16799376  0.72259898    -0.10700
C365        C  0.92064641  0.21050162  0.70590002    -0.11500
C366        C  0.97109026  0.25562106  0.69513060     0.20000
C367        C  0.02234119  0.25751302  0.70070545    -0.13600
C368        C  0.02326786  0.21501615  0.71741071    -0.11900
C369        C  0.97048680  0.30077486  0.67914109     0.00900
C370        C  0.97038384  0.33925449  0.66623838    -0.31900
C371        C  0.97419624  0.12865531  0.74737100     0.02300
C372        C  0.97490758  0.09522036  0.76441906    -0.33500
H373        H  0.88240004  0.13378279  0.73121455     0.13400
H374        H  0.88078241  0.20861267  0.70174779     0.13200
H375        H  0.06160201  0.29221483  0.69250950     0.13100
H376        H  0.06323600  0.21740864  0.72199349     0.12100
C377        C  0.96611761  0.59415599  0.70092559     0.18400
C378        C  0.00057207  0.65154510  0.69419455    -0.10700
C379        C  0.00075587  0.69283193  0.71255395    -0.11500
C380        C  0.96644052  0.67690506  0.73772027     0.20000
C381        C  0.93164398  0.61951997  0.74427271    -0.13600
C382        C  0.93147955  0.57829377  0.72594534    -0.11900
C383        C  0.96796740  0.71909344  0.75738592     0.00900
C384        C  0.96893756  0.75239566  0.77519034    -0.31900
C385        C  0.96716681  0.55151051  0.68267155     0.02300
C386        C  0.96816638  0.51497326  0.66819944    -0.33500
H387        H  0.02763444  0.66435079  0.67494886     0.13400
H388        H  0.02798997  0.73705099  0.70730311     0.13200
H389        H  0.90506168  0.60666689  0.76370708     0.13100
H390        H  0.90475631  0.53410629  0.73142785     0.12100
C391        C  0.62268656  0.96712851  0.97987205     0.18400
C392        C  0.67871054  0.98985703  0.98926303    -0.10700
C393        C  0.71837411  0.98708023  0.97088264    -0.11500
C394        C  0.70212016  0.96149066  0.94306213     0.20000
C395        C  0.64603615  0.93848033  0.93380412    -0.13600
C396        C  0.60646610  0.94128109  0.95213855    -0.11900
C397        C  0.74288549  0.95993904  0.92356241     0.00900
C398        C  0.77506095  0.95878884  0.90576498    -0.31900
C399        C  0.58172265  0.97055264  0.99838876     0.02300
C400        C  0.54552810  0.97146944  0.51291983    -0.33500
H401        H  0.69175311  0.00921483  0.51074462     0.13400
H402        H  0.76165370  0.00518553  0.97824563     0.13200
H403        H  0.63299449  0.91873446  0.91232068     0.13100
H404        H  0.56331351  0.92357576  0.94462763     0.12100
C405        C  0.28150276  0.96274590  0.98349705     0.18400
C406        C  0.26157176  0.99997567  0.98940996    -0.10700
C407        C  0.21679953  0.99682551  0.97298424    -0.11500
C408        C  0.19169970  0.95635449  0.95061162     0.20000
C409        C  0.21138456  0.91888946  0.94484556    -0.13600
C410        C  0.25614722  0.92206306  0.96124532    -0.11900
C411        C  0.14727625  0.95451889  0.93279114     0.00900
C412        C  0.11212525  0.95351992  0.91638310    -0.31900
C413        C  0.32826532  0.96655034  0.99998412     0.02300
C414        C  0.36761618  0.96881567  0.51335379    -0.33500
H415        H  0.28174306  0.03220534  0.50628073     0.13400
H416        H  0.20213448  0.02620520  0.97753052     0.13200
H417        H  0.19247707  0.88759756  0.92750904     0.13100
H418        H  0.27120769  0.89308667  0.95645589     0.12100
C419        C  0.70309500  0.95776136  0.73549509     0.18400
C420        C  0.71737946  0.00449044  0.71734798    -0.10700
C421        C  0.67648920  0.00539819  0.69916732    -0.11500
C422        C  0.62112618  0.95961559  0.69906236     0.20000
C423        C  0.60712819  0.91256259  0.71686992    -0.13600
C424        C  0.64797207  0.91164576  0.73502517    -0.11900
C425        C  0.57822004  0.96149012  0.68146666     0.00900
C426        C  0.54127197  0.96268850  0.66752497    -0.31900
C427        C  0.74397783  0.95805562  0.75564290     0.02300
C428        C  0.77605575  0.95800935  0.77388954    -0.33500
H429        H  0.75978779  0.04049552  0.71759826     0.13400
H430        H  0.68781791  0.04206121  0.68553538     0.13200
H431        H  0.56448656  0.87696011  0.71702841     0.13100
H432        H  0.63635473  0.87537889  0.74903265     0.12100
C433        C  0.27777838  0.95546511  0.69690781     0.18400
C434        C  0.28806090  0.00131008  0.71488583    -0.10700
C435        C  0.24434251  0.99989885  0.73148466    -0.11500
C436        C  0.19000244  0.95263977  0.73022660     0.20000
C437        C  0.17950974  0.90686078  0.71209318    -0.13600
C438        C  0.22330960  0.90829513  0.69544711    -0.11900
C439        C  0.14585773  0.95079658  0.74833434     0.00900
C440        C  0.11148268  0.95085264  0.76496062    -0.31900
C441        C  0.32339956  0.95673738  0.68039068     0.02300
C442        C  0.36249005  0.95871251  0.66704125    -0.33500
H443        H  0.32996188  0.03797335  0.71623239     0.13400
H444        H  0.25301671  0.03544452  0.74549547     0.13200
H445        H  0.13771936  0.86997517  0.71102847     0.13100
H446        H  0.21483550  0.87255447  0.68165450     0.12100
C447        C  0.66685496  0.65041934  0.98364745     0.18400
C448        C  0.71931791  0.65350392  0.98101210    -0.10700
C449        C  0.76241540  0.69673308  0.96445614    -0.11500
C450        C  0.75325578  0.73712935  0.95049642     0.20000
C451        C  0.70089425  0.73420064  0.95325901    -0.13600
C452        C  0.65780821  0.69097138  0.96979678    -0.11900
C453        C  0.79669018  0.78033094  0.93245939     0.00900
C454        C  0.83125488  0.81501424  0.91600480    -0.31900
C455        C  0.62212679  0.60525902  0.00018838     0.02300
C456        C  0.58390291  0.56739201  0.51368652    -0.33500
H457        H  0.72675416  0.62231383  0.99157171     0.13400
H458        H  0.80261443  0.69837568  0.96233522     0.13200
H459        H  0.69324431  0.76502903  0.94243280     0.13100
H460        H  0.61740240  0.68895772  0.97162490     0.12100
C461        C  0.33011561  0.30644104  0.98149899     0.18400
C462        C  0.34373385  0.27405219  0.96294556    -0.10700
C463        C  0.30256514  0.23303135  0.94458202    -0.11500
C464        C  0.24754961  0.22416682  0.94467299     0.20000
C465        C  0.23373750  0.25614578  0.96344584    -0.13600
C466        C  0.27494246  0.29719120  0.98183336    -0.11900
C467        C  0.20612712  0.18390828  0.92462929     0.00900
C468        C  0.17342847  0.15191057  0.90654724    -0.31900
C469        C  0.37319638  0.35027526  0.99943727     0.02300
C470        C  0.40966497  0.38828045  0.51363393    -0.33500
H471        H  0.38616548  0.28146849  0.46238423     0.13400
H472        H  0.31378280  0.20873617  0.93006448     0.13200
H473        H  0.19139789  0.24983886  0.96359823     0.13100
H474        H  0.26398420  0.32211567  0.99601955     0.12100
C475        C  0.75571646  0.73516417  0.73078757     0.18400
C476        C  0.74721234  0.74478687  0.70138138    -0.10700
C477        C  0.70399542  0.70153929  0.68485923    -0.11500
C478        C  0.66918016  0.64860540  0.69771630     0.20000
C479        C  0.67805772  0.63892716  0.72703859    -0.13600
C480        C  0.72121918  0.68209823  0.74353002    -0.11900
C481        C  0.62388413  0.60436948  0.68105609     0.00900
C482        C  0.58543735  0.56679306  0.66760681    -0.31900
C483        C  0.79874664  0.77977002  0.74828909     0.02300
C484        C  0.83276286  0.81501121  0.76469576    -0.33500
H485        H  0.77360678  0.78571175  0.69134339     0.13400
H486        H  0.69747419  0.70945543  0.66219362     0.13200
H487        H  0.65139423  0.59817492  0.73719436     0.13100
H488        H  0.72740298  0.67426218  0.76627040     0.12100
C489        C  0.24860342  0.22487647  0.73724904     0.18400
C490        C  0.30576498  0.25182776  0.74502591    -0.10700
C491        C  0.34631903  0.29341198  0.72670999    -0.11500
C492        C  0.32996932  0.30831078  0.70049978     0.20000
C493        C  0.27285015  0.28091838  0.69251061    -0.13600
C494        C  0.23221473  0.23927609  0.71086850    -0.11900
C495        C  0.37187928  0.35251150  0.68228109     0.00900
C496        C  0.40847096  0.39033853  0.66804242    -0.31900
C497        C  0.20696826  0.18402775  0.75695184     0.02300
C498        C  0.17408620  0.15186653  0.77488636    -0.33500
H499        H  0.31890037  0.24115255  0.76540789     0.13400
H500        H  0.39032990  0.31432986  0.73312288     0.13200
H501        H  0.25972058  0.29214187  0.67230366     0.13100
H502        H  0.18810771  0.21883998  0.70468854     0.12100
loop_ 
_geom_bond_atom_site_label_1 
_geom_bond_atom_site_label_2 
_geom_bond_distance 
_geom_bond_site_symmetry_2 
_ccdc_geom_bond_type 
C1            N2   1.357       .  A
C1            N6   1.357       .  A
C1          C245   1.436       .  S
N2            C3   1.359       .  A
C3            N4   1.359       .  A
C3            C9   1.469       .  S
N4            C5   1.356       .  A
C5            N6   1.357       .  A
C5          C231   1.435       .  S
C7            N8   1.357       .  A
C7           N12   1.357       .  A
C7          C219   1.436       .  S
N8            C9   1.359       .  A
C9           N10   1.359       .  A
N10          C11   1.357       .  A
C11          N12   1.357       .  A
C11         C205   1.436       .  S
C13          N14   1.358       .  A
C13          N18   1.358       .  A
C13         C175   1.438       .  S
N14          C15   1.360       .  A
C15          N16   1.359       .  A
C15          C21   1.471       .  S
N16          C17   1.357       .  A
C17          N18   1.358       .  A
C17         C191   1.438       .  S
C19          N20   1.358       .  A
C19          N24   1.357       .  A
C19         C149   1.437       .  S
N20          C21   1.360       .  A
C21          N22   1.360       .  A
N22          C23   1.357       .  A
C23          N24   1.357       .  A
C23         C163   1.437       .  S
C25          N26   1.358       .  A
C25          N30   1.358       .  A
C25         C135   1.438       .  S
N26          C27   1.360       .  A
C27          N28   1.359       .  A
C27          C35   1.470       .  S
N28          C29   1.356       .  A
C29          N30   1.357       .  A
C29         C119   1.436       .  S
C31          N32   1.357       .  A
C31          N36   1.357       .  A
C31         C105   1.435       .  S
N32          C33   1.357       .  A
C33          N34   1.356       .  A
C33          C93   1.436       .  S
N34          C35   1.359       .  A
C35          N36   1.359       .  A
O37          C64   1.270   1_545  A
O37         Mn63   2.096       .  S
C38         C217   1.435       .  S
C38          O71   1.270       .  A
C38          O68   1.270       .  A
O39         Mn46   2.160       .  S
O39         Mn57   2.136       .  S
O39         Mn61   2.159       .  S
O39         Mn63   2.138   1_565  S
O40          C50   1.270       .  A
O40         Mn74   2.093       .  S
O41          C64   1.271       .  A
O41         Mn57   2.096       .  S
O42          C69   1.249       .  A
O42         Mn61   2.086       .  S
O43         Mn74   1.969   1_655  S
O43         Mn63   1.967       .  S
O43          C59   1.220       .  S
C44         C189   1.436       .  S
C44          O47   1.249       .  A
C44          O70   1.219       .  S
O45         Mn65   2.136   1_655  S
O45         Mn46   2.159       .  S
O45         Mn79   2.137       .  S
O45         Mn61   2.158       .  S
Mn46         O75   2.092   1_655  S
Mn46         O51   2.091       .  S
Mn46         O78   2.089   1_565  S
Mn46         O52   2.159   1_665  S
O47         Mn61   2.090   1_455  S
O48          C50   1.270       .  A
O48         Mn55   2.093       .  S
C49         C161   1.435       .  S
C49          O75   1.250       .  A
C49          O62   1.219       .  S
C50         C247   1.434       .  S
O51          C76   1.250       .  A
O52         Mn55   2.137       .  S
O52         Mn74   2.137       .  S
O52         Mn61   2.156   1_445  S
O53         Mn57   1.967       .  S
O53         Mn79   1.966       .  S
O53          C76   1.219       .  S
C54         C133   1.437       .  S
C54          O80   1.271   1_655  A
C54          O56   1.270       .  A
Mn55         O68   2.094       .  S
Mn55         O70   1.970   1_545  S
Mn55         O62   1.965   1_545  S
O56         Mn79   2.095       .  S
Mn57         O73   2.096       .  S
Mn57         O67   1.969       .  S
O58          C60   1.270   1_545  A
O58         Mn63   2.094       .  S
C59         C121   1.435       .  S
C59          O77   1.249       .  A
C60         C147   1.437       .  S
C60          O73   1.271       .  A
Mn61         O77   2.087   1_565  S
O62         Mn65   1.967       .  S
Mn63         O81   1.967       .  S
C64         C177   1.437       .  S
Mn65         O72   2.092       .  S
Mn65         O80   2.097       .  S
Mn65         O70   1.968       .  S
C66         C107   1.434       .  S
C66          O72   1.270   1_655  A
C66          O82   1.270       .  A
O67         Mn79   1.966       .  S
O67          C69   1.219       .  S
C69         C233   1.432       .  S
O71         Mn74   2.093       .  S
Mn74         O81   1.967   1_455  S
C76         C203   1.435       .  S
O78          C83   1.250       .  A
Mn79         O82   2.093       .  S
O81          C83   1.219       .  S
C83          C91   1.434       .  S
C84          C92   1.440       .  S
C84          C85   1.401       .  A
C84          C89   1.402   1_655  A
C85          C86   1.399       .  A
C85          H94   1.083       .  S
C86          C87   1.401       .  A
C86          H95   1.084       .  S
C87          C90   1.440       .  S
C87          C88   1.402   1_655  A
C88          C89   1.399       .  A
C88          H96   1.084       .  S
C89          H97   1.083       .  S
C90          C91   1.206       .  T
C92         C344   1.206       .  T
C93         C343   1.206   1_554  T
C98         C106   1.439       .  S
C98          C99   1.401       .  A
C98         C103   1.401   1_655  A
C99         C100   1.399       .  A
C99         H108   1.084       .  S
C100        C101   1.402       .  A
C100        H360   1.083       .  S
C101        C104   1.439       .  S
C101        C102   1.401   1_655  A
C102        C103   1.398       .  A
C102        H110   1.083       .  S
C103        H111   1.084       .  S
C104        C356   1.206       .  T
C105        C355   1.206   1_554  T
C106        C107   1.205       .  T
H109        C351   1.084       .  S
C112        C120   1.440       .  S
C112        C113   1.402       .  A
C112        C117   1.401   1_655  A
C113        C114   1.399       .  A
C113        H122   1.084       .  S
C114        C115   1.402       .  A
C114        H123   1.083       .  S
C115        C118   1.441       .  S
C115        C116   1.402   1_655  A
C116        C117   1.399       .  A
C116        H124   1.084       .  S
C117        H125   1.084       .  S
C118        C119   1.206       .  T
C120        C121   1.206       .  T
C126        C134   1.442       .  S
C126        C127   1.403       .  A
C126        C131   1.401       .  A
C127        C128   1.401       .  A
C127        H136   1.083       .  S
C128        C129   1.402       .  A
C128        H137   1.083       .  S
C129        C132   1.442       .  S
C129        C130   1.401       .  A
C130        C131   1.399       .  A
C130        H138   1.084       .  S
C131        H139   1.083       .  S
C132        C133   1.207       .  T
C134        C135   1.207       .  T
C140        C148   1.442       .  S
C140        C141   1.402       .  A
C140        C145   1.401       .  A
C141        C142   1.401       .  A
C141        H401   1.083   1_565  S
C142        C143   1.402       .  A
C142        H151   1.083   1_565  S
C143        C146   1.442       .  S
C143        C144   1.401       .  A
C144        C145   1.398       .  A
C144        H152   1.084       .  S
C145        H153   1.083       .  S
C146        C147   1.207       .  T
C148        C400   1.207       .  T
C149        C399   1.207   1_554  T
H150        C392   1.083   1_544  S
C154        C162   1.441       .  S
C154        C155   1.402   1_565  A
C154        C159   1.401       .  A
C155        C156   1.400   1_545  A
C155        H415   1.083       .  S
C156        C157   1.402       .  A
C156        H165   1.083   1_565  S
C157        C160   1.441       .  S
C157        C158   1.401       .  A
C158        C159   1.399       .  A
C158        H166   1.084       .  S
C159        H167   1.083       .  S
C160        C161   1.206       .  T
C162        C414   1.207       .  T
C163        C413   1.207   1_554  T
H164        C406   1.083   1_544  S
C168        C176   1.442       .  S
C168        C169   1.402   1_565  A
C168        C173   1.402       .  A
C169        C170   1.401       .  A
C169        H178   1.083       .  S
C170        C171   1.402   1_545  A
C170        H179   1.083       .  S
C171        C174   1.442       .  S
C171        C172   1.401       .  A
C172        C173   1.399       .  A
C172        H180   1.083       .  S
C173        H181   1.084       .  S
C174        C175   1.207       .  T
C176        C177   1.207       .  T
C182        C190   1.442       .  S
C182        C183   1.401   1_565  A
C182        C187   1.403       .  A
C183        C184   1.398       .  A
C183        H192   1.084       .  S
C184        C185   1.401   1_545  A
C184        H193   1.084       .  S
C185        C188   1.441       .  S
C185        C186   1.402       .  A
C186        C187   1.401       .  A
C186        H194   1.084       .  S
C187        H195   1.083       .  S
C188        C189   1.207       .  T
C190        C191   1.207       .  T
C196        C204   1.441       .  S
C196        C197   1.402       .  A
C196        C201   1.401       .  A
C197        C198   1.400       .  A
C197        H206   1.084       .  S
C198        C199   1.402       .  A
C198        H207   1.084       .  S
C199        C202   1.440       .  S
C199        C200   1.401       .  A
C200        C201   1.399       .  A
C200        H208   1.084       .  S
C201        H209   1.083       .  S
C202        C203   1.206       .  T
C204        C456   1.206       .  T
C205        C455   1.206       .  T
C210        C218   1.440       .  S
C210        C211   1.401       .  A
C210        C215   1.402       .  A
C211        C212   1.398       .  A
C211        H471   1.084       .  S
C212        C213   1.401       .  A
C212        H221   1.083       .  S
C213        C216   1.440       .  S
C213        C214   1.402       .  A
C214        C215   1.400       .  A
C214        H222   1.084       .  S
C215        H223   1.083       .  S
C216        C217   1.206       .  T
C218        C470   1.206       .  T
C219        C469   1.206   1_554  T
H220        C462   1.084       .  S
C224        C232   1.438       .  S
C224        C225   1.401       .  A
C224        C229   1.401       .  A
C225        C226   1.399       .  A
C225        H234   1.084       .  S
C226        C227   1.401       .  A
C226        H235   1.083       .  S
C227        C230   1.439       .  S
C227        C228   1.401       .  A
C228        C229   1.398       .  A
C228        H236   1.084       .  S
C229        H237   1.084       .  S
C230        C231   1.206       .  T
C232        C233   1.205       .  T
C238        C246   1.439       .  S
C238        C239   1.401       .  A
C238        C243   1.402       .  A
C239        C240   1.398       .  A
C239        H248   1.084       .  S
C240        C241   1.401       .  A
C240        H249   1.084       .  S
C241        C244   1.440       .  S
C241        C242   1.402       .  A
C242        C243   1.400       .  A
C242        H250   1.083       .  S
C243        H251   1.083       .  S
C244        C245   1.206       .  T
C246        C247   1.206       .  T
C252        N253   1.357       .  A
C252        N257   1.357       .  A
C252        C496   1.436       .  S
N253        C254   1.360       .  A
C254        N255   1.359       .  A
C254        C260   1.469       .  S
N255        C256   1.356       .  A
C256        N257   1.357       .  A
C256        C482   1.435       .  S
C258        N259   1.357       .  A
C258        N263   1.357       .  A
C258        C470   1.436       .  S
N259        C260   1.359       .  A
C260        N261   1.360       .  A
N261        C262   1.357       .  A
C262        N263   1.357       .  A
C262        C456   1.436       .  S
C264        N265   1.358       .  A
C264        N269   1.358       .  A
C264        C426   1.438       .  S
N265        C266   1.360       .  A
C266        N267   1.360       .  A
C266        C272   1.471       .  S
N267        C268   1.357       .  A
C268        N269   1.358       .  A
C268        C442   1.438       .  S
C270        N271   1.358       .  A
C270        N275   1.357       .  A
C270        C400   1.437       .  S
N271        C272   1.360       .  A
C272        N273   1.359       .  A
N273        C274   1.357       .  A
C274        N275   1.357       .  A
C274        C414   1.437       .  S
C276        N277   1.358       .  A
C276        N281   1.358       .  A
C276        C386   1.438       .  S
N277        C278   1.360       .  A
C278        N279   1.359       .  A
C278        C286   1.470       .  S
N279        C280   1.356       .  A
C280        N281   1.357       .  A
C280        C370   1.436       .  S
C282        N283   1.357       .  A
C282        N287   1.357       .  A
C282        C356   1.435       .  S
N283        C284   1.357       .  A
C284        N285   1.356       .  A
C284        C344   1.436       .  S
N285        C286   1.359       .  A
C286        N287   1.359       .  A
O288        C315   1.271   1_545  A
O288       Mn314   2.096       .  S
C289        C468   1.435       .  S
C289        O322   1.270       .  A
C289        O319   1.270       .  A
O290       Mn297   2.159       .  S
O290       Mn308   2.136       .  S
O290       Mn312   2.159       .  S
O290       Mn314   2.138   1_565  S
O291        C301   1.270       .  A
O291       Mn325   2.094       .  S
O292        C315   1.270       .  A
O292       Mn308   2.095       .  S
O293        C320   1.249       .  A
O293       Mn312   2.086       .  S
O294       Mn325   1.968   1_655  S
O294       Mn314   1.968       .  S
O294        C310   1.220       .  S
C295        C440   1.436       .  S
C295        O298   1.249       .  A
C295        O321   1.219       .  S
O296       Mn316   2.136   1_655  S
O296       Mn297   2.159       .  S
O296       Mn330   2.137       .  S
O296       Mn312   2.158       .  S
Mn297       O326   2.091   1_655  S
Mn297       O302   2.091       .  S
Mn297       O329   2.090   1_565  S
Mn297       O303   2.159   1_665  S
O298       Mn312   2.091   1_455  S
O299        C301   1.270       .  A
O299       Mn306   2.092       .  S
C300        C412   1.435       .  S
C300        O326   1.250       .  A
C300        O313   1.219       .  S
C301        C498   1.435       .  S
O302        C327   1.250       .  A
O303       Mn306   2.137       .  S
O303       Mn325   2.137       .  S
O303       Mn312   2.156   1_445  S
O304       Mn308   1.968       .  S
O304       Mn330   1.966       .  S
O304        C327   1.219       .  S
C305        C384   1.437       .  S
C305        O331   1.271   1_655  A
C305        O307   1.270       .  A
Mn306       O319   2.094       .  S
Mn306       O321   1.970   1_545  S
Mn306       O313   1.965   1_545  S
O307       Mn330   2.095       .  S
Mn308       O324   2.096       .  S
Mn308       O318   1.968       .  S
O309        C311   1.270   1_545  A
O309       Mn314   2.094       .  S
C310        C372   1.435       .  S
C310        O328   1.249       .  A
C311        C398   1.437       .  S
C311        O324   1.271       .  A
Mn312       O328   2.087   1_565  S
O313       Mn316   1.967       .  S
Mn314       O332   1.967       .  S
C315        C428   1.437       .  S
Mn316       O323   2.092       .  S
Mn316       O331   2.097       .  S
Mn316       O321   1.967       .  S
C317        C358   1.434       .  S
C317        O323   1.270   1_655  A
C317        O333   1.270       .  A
O318       Mn330   1.966       .  S
O318        C320   1.219       .  S
C320        C484   1.432       .  S
O322       Mn325   2.093       .  S
Mn325       O332   1.967   1_455  S
C327        C454   1.435       .  S
O329        C334   1.250       .  A
Mn330       O333   2.093       .  S
O332        C334   1.219       .  S
C334        C342   1.435       .  S
C335        C343   1.440       .  S
C335        C336   1.401       .  A
C335        C340   1.402   1_655  A
C336        C337   1.399       .  A
C336        H345   1.083       .  S
C337        C338   1.401       .  A
C337        H346   1.084       .  S
C338        C341   1.440       .  S
C338        C339   1.402   1_655  A
C339        C340   1.399       .  A
C339        H347   1.084       .  S
C340        H348   1.084       .  S
C341        C342   1.206       .  T
C349        C357   1.439       .  S
C349        C350   1.401       .  A
C349        C354   1.401   1_655  A
C350        C351   1.399       .  A
C350        H359   1.084       .  S
C351        C352   1.402       .  A
C352        C355   1.440       .  S
C352        C353   1.401   1_655  A
C353        C354   1.398       .  A
C353        H361   1.083       .  S
C354        H362   1.084       .  S
C357        C358   1.205       .  T
C363        C371   1.440       .  S
C363        C364   1.402       .  A
C363        C368   1.401   1_655  A
C364        C365   1.399       .  A
C364        H373   1.084       .  S
C365        C366   1.401       .  A
C365        H374   1.083       .  S
C366        C369   1.440       .  S
C366        C367   1.402   1_655  A
C367        C368   1.399       .  A
C367        H375   1.084       .  S
C368        H376   1.084       .  S
C369        C370   1.206       .  T
C371        C372   1.206       .  T
C377        C385   1.442       .  S
C377        C378   1.402   1_655  A
C377        C382   1.401       .  A
C378        C379   1.401       .  A
C378        H387   1.083       .  S
C379        C380   1.402   1_455  A
C379        H388   1.083       .  S
C380        C383   1.442       .  S
C380        C381   1.402       .  A
C381        C382   1.399       .  A
C381        H389   1.084       .  S
C382        H390   1.083       .  S
C383        C384   1.207       .  T
C385        C386   1.207       .  T
C391        C399   1.441       .  S
C391        C392   1.402       .  A
C391        C396   1.401       .  A
C392        C393   1.401       .  A
C393        C394   1.402       .  A
C393        H402   1.083   1_565  S
C394        C397   1.441       .  S
C394        C395   1.401       .  A
C395        C396   1.398       .  A
C395        H403   1.084       .  S
C396        H404   1.083       .  S
C397        C398   1.207       .  T
C405        C413   1.441       .  S
C405        C406   1.402       .  A
C405        C410   1.401       .  A
C406        C407   1.400       .  A
C407        C408   1.401       .  A
C407        H416   1.083   1_565  S
C408        C411   1.440       .  S
C408        C409   1.401       .  A
C409        C410   1.399       .  A
C409        H417   1.084       .  S
C410        H418   1.083       .  S
C411        C412   1.206       .  T
C419        C427   1.442       .  S
C419        C420   1.402   1_565  A
C419        C424   1.402       .  A
C420        C421   1.401       .  A
C420        H429   1.083       .  S
C421        C422   1.402   1_545  A
C421        H430   1.083       .  S
C422        C425   1.442       .  S
C422        C423   1.401       .  A
C423        C424   1.399       .  A
C423        H431   1.083       .  S
C424        H432   1.084       .  S
C425        C426   1.207       .  T
C427        C428   1.207       .  T
C433        C441   1.442       .  S
C433        C434   1.401   1_565  A
C433        C438   1.403       .  A
C434        C435   1.398   1_545  A
C434        H443   1.084       .  S
C435        C436   1.401       .  A
C435        H444   1.084   1_565  S
C436        C439   1.441       .  S
C436        C437   1.402       .  A
C437        C438   1.401       .  A
C437        H445   1.084       .  S
C438        H446   1.083       .  S
C439        C440   1.207       .  T
C441        C442   1.207       .  T
C447        C455   1.441   1_556  S
C447        C448   1.402       .  A
C447        C452   1.401       .  A
C448        C449   1.400       .  A
C448        H457   1.083       .  S
C449        C450   1.402       .  A
C449        H458   1.084       .  S
C450        C453   1.440       .  S
C450        C451   1.401       .  A
C451        C452   1.399       .  A
C451        H459   1.084       .  S
C452        H460   1.083       .  S
C453        C454   1.206       .  T
C461        C469   1.440       .  S
C461        C462   1.401       .  A
C461        C466   1.402       .  A
C462        C463   1.398       .  A
C463        C464   1.401       .  A
C463        H472   1.083       .  S
C464        C467   1.440       .  S
C464        C465   1.402       .  A
C465        C466   1.400       .  A
C465        H473   1.084       .  S
C466        H474   1.083       .  S
C467        C468   1.206       .  T
C475        C483   1.438       .  S
C475        C476   1.401       .  A
C475        C480   1.401       .  A
C476        C477   1.400       .  A
C476        H485   1.083       .  S
C477        C478   1.402       .  A
C477        H486   1.083       .  S
C478        C481   1.439       .  S
C478        C479   1.400       .  A
C479        C480   1.397       .  A
C479        H487   1.084       .  S
C480        H488   1.084       .  S
C481        C482   1.205       .  T
C483        C484   1.204       .  T
C489        C497   1.440       .  S
C489        C490   1.401       .  A
C489        C494   1.402       .  A
C490        C491   1.398       .  A
C490        H499   1.084       .  S
C491        C492   1.401       .  A
C491        H500   1.083       .  S
C492        C495   1.440       .  S
C492        C493   1.402       .  A
C493        C494   1.400       .  A
C493        H501   1.083       .  S
C494        H502   1.083       .  S
C495        C496   1.206       .  T
C497        C498   1.206       .  T
