geometry optimzed in LAMMPS
_audit_creation_date              2020-11-30 
_audit_creation_method            'lammps2cif' 
_symmetry_space_group_name_H-M    'P1' 
_symmetry_Int_Tables_number       1 
_symmetry_cell_setting            triclinic 
loop_ 
_symmetry_equiv_pos_as_xyz 
  x,y,z 
_cell_length_a                    25.89508762 
_cell_length_b                    26.18605126399701 
_cell_length_c                    26.50124169876259 
_cell_angle_alpha                 90.04348680322613 
_cell_angle_beta                  89.5833247703767 
_cell_angle_gamma                 89.36054338110335 
loop_ 
_atom_site_label 
_atom_site_type_symbol 
_atom_site_fract_x 
_atom_site_fract_y 
_atom_site_fract_z 
_atom_site_charge 
C1          C  0.87120138  0.86561776  0.86460400    -0.02600
N2          N  0.77070238  0.93277311  0.41268721    -0.06300
N3          N  0.73188005  0.94550731  0.44347539    -0.58400
N4          N  0.82090324  0.96637825  0.30217089    -0.05900
N5          N  0.82245661  0.99728475  0.26352841    -0.60500
N6          N  0.78559493  0.93132860  0.29661611    -0.05500
N7          N  0.76239364  0.93741676  0.25331833    -0.58300
N8          N  0.80759004  0.96671004  0.41622154    -0.05200
N9          N  0.79444283  0.00292459  0.44905758    -0.60900
C10         C  0.74711283  0.98939068  0.46638948     0.95900
C11         C  0.78613746  0.97848109  0.23336303     0.95700
N12         N  0.97384661  0.93376948  0.30651638    -0.06400
N13         N  0.01143243  0.94605899  0.27476436    -0.59000
N14         N  0.92897635  0.95894351  0.42064965    -0.04600
N15         N  0.93984298  0.99425979  0.45349854    -0.60200
N16         N  0.96505190  0.92321703  0.41959225    -0.06500
N17         N  0.00164594  0.93312919  0.45174317    -0.59200
N18         N  0.93808311  0.96955216  0.30733058    -0.04200
N19         N  0.95042636  0.00680730  0.27590866    -0.60300
Mn20       Mn  0.87342799  0.96665519  0.36228393     1.18400
C21         C  0.99635657  0.99179916  0.25545629     0.98000
C22         C  0.98471000  0.97711886  0.47212476     0.98700
N23         N  0.77431499  0.81101784  0.29301102    -0.06500
N24         N  0.73669596  0.79768420  0.26199434    -0.62800
N25         N  0.80967331  0.77452972  0.40649130    -0.05300
N26         N  0.79977315  0.73943078  0.44031873    -0.63500
N27         N  0.77376182  0.81059060  0.40706644    -0.06000
N28         N  0.73844188  0.80102381  0.44136141    -0.63100
N29         N  0.81076712  0.77573927  0.29264816    -0.04900
N30         N  0.79883201  0.73839909  0.26126122    -0.63800
Mn31       Mn  0.77398746  0.87195960  0.35237179     1.10700
C32         C  0.75250358  0.75222607  0.24175789     0.99200
C33         C  0.75555473  0.75681535  0.46131461     0.99300
N34         N  0.96809851  0.80423985  0.41283020    -0.06000
N35         N  0.00298836  0.79157316  0.44697435    -0.61400
N36         N  0.93013598  0.78389533  0.29371488    -0.05300
N37         N  0.93307894  0.76196967  0.24935175    -0.58100
N38         N  0.96639886  0.81808402  0.29800692    -0.06600
N39         N  0.99505210  0.82001475  0.25722281    -0.60900
N40         N  0.93226127  0.76927199  0.41032444    -0.05600
N41         N  0.94228557  0.73217915  0.44311382    -0.58100
Mn42       Mn  0.96990511  0.86916239  0.35968981     1.20200
Mn43       Mn  0.87129864  0.77393393  0.35099086     1.10100
Cl44       Cl  0.87186069  0.87026174  0.35709511    -0.86100
C45         C  0.98660827  0.74656662  0.46628296     0.96200
C46         C  0.97395576  0.78471261  0.22730329     0.96000
N47         N  0.96236306  0.42715059  0.92250804    -0.06300
N48         N  0.00172283  0.45444877  0.93654460    -0.58400
N49         N  0.93359219  0.31236789  0.96086788    -0.05900
N50         N  0.94659213  0.27936740  0.99642565    -0.60500
N51         N  0.96841365  0.31238027  0.92472565    -0.05500
N52         N  0.00573249  0.27910353  0.93485435    -0.58300
N53         N  0.92654766  0.42662538  0.95787452    -0.05200
N54         N  0.94029457  0.45348771  0.99691789    -0.60900
C55         C  0.98682477  0.46992207  0.98266525     0.95900
C56         C  0.99165576  0.25831953  0.97975576     0.95700
N57         N  0.77961842  0.30612095  0.92615236    -0.06400
N58         N  0.75153631  0.26567618  0.93451612    -0.59000
N59         N  0.80640540  0.42540448  0.96348401    -0.04600
N60         N  0.79576542  0.45970073  0.99887153    -0.60200
N61         N  0.76877189  0.42338556  0.93055482    -0.06500
N62         N  0.73164794  0.45639249  0.94305303    -0.59200
N63         N  0.81576172  0.30955770  0.96033896    -0.04200
N64         N  0.81324754  0.27226266  0.99298796    -0.60300
Mn65       Mn  0.87013848  0.36894528  0.96164175     1.18400
C66         C  0.77373353  0.24501393  0.97578718     0.98000
C67         C  0.74941269  0.47946581  0.98528303     0.98700
N68         N  0.96177694  0.31273548  0.80901872    -0.06500
N69         N  0.99377942  0.27398781  0.80523392    -0.62800
N70         N  0.92767251  0.42834848  0.76905947    -0.05300
N71         N  0.93936277  0.46191726  0.73324457    -0.63500
N72         N  0.96314132  0.42895224  0.80426593    -0.06000
N73         N  0.99904505  0.46282279  0.79322855    -0.63100
N74         N  0.92542710  0.31051433  0.77489166    -0.04900
N75         N  0.93167332  0.26950447  0.74699663    -0.63800
Mn76       Mn  0.96511176  0.37071512  0.86460912     1.10700
C77         C  0.97402754  0.24720194  0.76710522     0.99200
C78         C  0.98413272  0.48369102  0.74878745     0.99300
N79         N  0.76907731  0.42398093  0.81272023    -0.06000
N80         N  0.73497121  0.46102019  0.80730170    -0.61400
N81         N  0.80413478  0.30928683  0.77095672    -0.05300
N82         N  0.79212334  0.27642336  0.73481036    -0.58100
N83         N  0.76970810  0.30734173  0.80756898    -0.06600
N84         N  0.73396145  0.27317903  0.79690306    -0.60900
N85         N  0.80540155  0.42659717  0.77788718    -0.05600
N86         N  0.79745265  0.46601897  0.74849107    -0.58100
Mn87       Mn  0.76971485  0.36483981  0.86940164     1.20200
Mn88       Mn  0.86567479  0.36884010  0.77095393     1.10100
Cl89       Cl  0.86751083  0.36868625  0.86639427    -0.86100
C90         C  0.75405780  0.48723077  0.76787329     0.96200
C91         C  0.74820180  0.25350668  0.75133814     0.96000
N92         N  0.41385604  0.76578319  0.93175548    -0.06300
N93         N  0.44394650  0.72671013  0.94452421    -0.58400
N94         N  0.30083469  0.81988217  0.95841082    -0.05900
N95         N  0.26217622  0.81878078  0.99038923    -0.60500
N96         N  0.29659250  0.78453908  0.92359347    -0.05500
N97         N  0.25428725  0.75857406  0.93098904    -0.58300
N98         N  0.41685829  0.80219028  0.96563303    -0.05200
N99         N  0.44888695  0.78860518  0.00209337    -0.60900
C100        C  0.46595385  0.74137447  0.98849650     0.95900
C101        C  0.23338103  0.78077136  0.97252863     0.95700
N102        N  0.31556554  0.97045751  0.92616129    -0.06400
N103        N  0.28442108  0.00962625  0.93639855    -0.59000
N104        N  0.42810807  0.92043817  0.95858715    -0.04600
N105        N  0.46170257  0.92884118  0.99411581    -0.60200
N106        N  0.43152456  0.95488100  0.92274395    -0.06500
N107        N  0.46753721  0.98769709  0.93254125    -0.59200
N108        N  0.31226515  0.93586231  0.96175211    -0.04200
N109        N  0.27888535  0.95059963  0.99701911    -0.60300
Mn110      Mn  0.36486139  0.86936448  0.96250663     1.18400
C111        C  0.26121004  0.99635429  0.98037708     0.98000
C112        C  0.48556983  0.97047307  0.97662720     0.98700
N113        N  0.30292230  0.77310632  0.80491546    -0.06500
N114        N  0.26919110  0.73768520  0.79209290    -0.62800
N115        N  0.42603642  0.80496543  0.78005090    -0.05300
N116        N  0.46865325  0.79783307  0.75404626    -0.63500
N117        N  0.42069981  0.76888747  0.81419717    -0.06000
N118        N  0.45908371  0.73576287  0.81142162    -0.63100
N119        N  0.30779771  0.80689638  0.76855661    -0.04900
N120        N  0.27747763  0.79472987  0.73019791    -0.63800
Mn121      Mn  0.35798127  0.77108463  0.86863812     1.10700
C122        C  0.25285511  0.75184014  0.74562011     0.99200
C123        C  0.48891354  0.75507085  0.77441301     0.99300
N124        N  0.43361080  0.96047161  0.80530736    -0.06000
N125        N  0.46658681  0.99681625  0.79291253    -0.61400
N126        N  0.31282380  0.92733618  0.77619882    -0.05300
N127        N  0.27065942  0.93401147  0.74991075    -0.58100
N128        N  0.31643673  0.96324328  0.81057262    -0.06600
N129        N  0.27755872  0.99535138  0.80849642    -0.60900
N130        N  0.43169062  0.92570947  0.76959012    -0.05600
N131        N  0.46340458  0.93822695  0.73197500    -0.58100
Mn132      Mn  0.37474410  0.96349411  0.86598777     1.20200
Mn133      Mn  0.36972022  0.86613451  0.77134561     1.10100
Cl134      Cl  0.36706742  0.86732781  0.86687298    -0.86100
C135        C  0.48579687  0.98228998  0.74742519     0.96200
C136        C  0.24922367  0.97614384  0.77116956     0.96000
C137        C  0.37337331  0.37041195  0.87019134    -0.02600
C138        C  0.37270249  0.87299778  0.36704832    -0.02600
C139        C  0.87227100  0.36970899  0.36888431    -0.02600
N140        N  0.21019592  0.05883574  0.68233515    -0.06300
N141        N  0.23788684  0.05141241  0.72278434    -0.58400
N142        N  0.18710967  0.02173536  0.56357754    -0.05900
N143        N  0.19920715  0.98709952  0.52899191    -0.60500
N144        N  0.22347999  0.05614588  0.56679799    -0.05500
N145        N  0.26135401  0.04534081  0.53439952    -0.58300
N146        N  0.17578405  0.02275903  0.67789012    -0.05200
N147        N  0.17940030  0.98953744  0.71454908    -0.60900
C148        C  0.21762727  0.00851344  0.74238184     0.95900
C149        C  0.24527801  0.00253158  0.51052725     0.95700
N150        N  0.03092686  0.06006743  0.55874564    -0.06400
N151        N  0.99590939  0.04990761  0.52519058    -0.59000
N152        N  0.05787411  0.01777611  0.67198700    -0.04600
N153        N  0.04575767  0.98007898  0.70284246    -0.60200
N154        N  0.02147331  0.05303369  0.67225792    -0.06500
N155        N  0.98376668  0.03989823  0.70355787    -0.59200
N156        N  0.06727394  0.02471947  0.55901213    -0.04200
N157        N  0.05810047  0.98916608  0.52572488    -0.60300
Mn158      Mn  0.12240811  0.02047155  0.61777434     1.18400
C159        C  0.01387394  0.00607289  0.50540782     0.98000
C160        C  0.99950990  0.99426880  0.72283556     0.98700
N161        N  0.21825300  0.17530021  0.56823212    -0.06500
N162        N  0.25176550  0.18138995  0.53143493    -0.62800
N163        N  0.18163597  0.21510682  0.68213482    -0.05300
N164        N  0.19382261  0.25202061  0.71438563    -0.63500
N165        N  0.21698543  0.17874080  0.68339867    -0.06000
N166        N  0.25327231  0.19021377  0.71642548    -0.63100
N167        N  0.18108462  0.20982167  0.56594827    -0.04900
N168        N  0.18786893  0.23979610  0.52696708    -0.63800
Mn169      Mn  0.21913814  0.11714246  0.62554494     1.10700
C170        C  0.23148266  0.22093739  0.50576478     0.99200
C171        C  0.23879826  0.23609949  0.73621280     0.99300
N172        N  0.02360384  0.17176036  0.67488856    -0.06000
N173        N  0.98872842  0.17690079  0.71059064    -0.61400
N174        N  0.05891130  0.21524807  0.56236838    -0.05300
N175        N  0.04694334  0.25158523  0.52928248    -0.58100
N176        N  0.02455513  0.17877162  0.56040109    -0.06600
N177        N  0.98917924  0.18945172  0.52604629    -0.60900
N178        N  0.05937216  0.20675193  0.67838642    -0.05600
N179        N  0.05021965  0.23618356  0.71739224    -0.58100
Mn180      Mn  0.02378625  0.11619872  0.61644815     1.20200
Mn181      Mn  0.12013891  0.21389752  0.62229484     1.10100
Cl182      Cl  0.12142493  0.11714651  0.62044409    -0.86100
C183        C  0.00666479  0.21642558  0.73704626     0.96200
C184        C  0.00320663  0.23506422  0.50630915     0.96000
N185        N  0.05479717  0.68911955  0.19987839    -0.06300
N186        N  0.04909617  0.73394395  0.22102454    -0.58400
N187        N  0.02205474  0.56724669  0.18180929    -0.05900
N188        N  0.98637180  0.53394892  0.19502894    -0.60500
N189        N  0.05644020  0.57185183  0.21763266    -0.05500
N190        N  0.04445886  0.54120446  0.25592722    -0.58300
N191        N  0.01901512  0.68239095  0.16588817    -0.05200
N192        N  0.98750668  0.72177762  0.16363949    -0.60900
C193        C  0.00708217  0.75366150  0.19802268     0.95900
C194        C  0.00053066  0.51711634  0.24132824     0.95700
N195        N  0.06797360  0.55720718  0.03035200    -0.06400
N196        N  0.06062537  0.52156941  0.99678785    -0.59000
N197        N  0.01747473  0.67204872  0.05164999    -0.04600
N198        N  0.98069921  0.70519323  0.03943233    -0.60200
N199        N  0.05399958  0.67153666  0.01717018    -0.06500
N200        N  0.04301857  0.70409795  0.98056757    -0.59200
N201        N  0.03134106  0.55723198  0.06486737    -0.04200
N202        N  0.99790015  0.52148835  0.05590222    -0.60300
Mn203      Mn  0.02086411  0.61915757  0.11629012     1.18400
C204        C  0.01725432  0.49999576  0.01380041     0.98000
C205        C  0.99752037  0.72531734  0.99528781     0.98700
N206        N  0.17975807  0.58047681  0.21420329    -0.06500
N207        N  0.18999803  0.54743007  0.25003305    -0.62800
N208        N  0.21154253  0.69471850  0.17628714    -0.05300
N209        N  0.24866101  0.72620528  0.18998963    -0.63500
N210        N  0.17467979  0.69470486  0.21065711    -0.06000
N211        N  0.18606315  0.72635010  0.24792934    -0.63100
N212        N  0.21645696  0.58029674  0.17960573    -0.04900
N213        N  0.25284301  0.54695528  0.19082952    -0.63800
Mn214      Mn  0.11590848  0.63388711  0.21243734     1.10700
C215        C  0.23530468  0.52748504  0.23449813     0.99200
C216        C  0.23230693  0.74631364  0.23468144     0.99300
N217        N  0.17014560  0.68151501  0.02180556    -0.06000
N218        N  0.16927303  0.71865347  0.98887415    -0.61400
N219        N  0.22344346  0.57181680  0.05841204    -0.05300
N220        N  0.26349272  0.54189266  0.04604908    -0.58100
N221        N  0.18694017  0.56679577  0.02465161    -0.06600
N222        N  0.20111675  0.53390001  0.98914618    -0.60900
N223        N  0.20476815  0.68908339  0.05680884    -0.05600
N224        N  0.22832056  0.73237280  0.04856627    -0.58100
Mn225      Mn  0.11999989  0.61869537  0.02239192     1.20200
Mn226      Mn  0.21615499  0.63399109  0.11743116     1.10100
Cl227      Cl  0.11857670  0.62580199  0.11746152    -0.86100
C228        C  0.20519923  0.75022246  0.00640239     0.96200
C229        C  0.24891359  0.51808012  0.00264740     0.96000
N230        N  0.67979166  0.05421799  0.01917108    -0.06300
N231        N  0.71279716  0.04185633  0.98260712    -0.58400
N232        N  0.56516790  0.02359183  0.06313826    -0.05900
N233        N  0.53575799  0.98527663  0.05110957    -0.60500
N234        N  0.56401173  0.05912662  0.02815047    -0.05500
N235        N  0.53385477  0.04612891  0.99124334    -0.58300
N236        N  0.68091134  0.01939445  0.05459644    -0.05200
N237        N  0.71495149  0.98322159  0.04340403    -0.60900
C238        C  0.73494417  0.99733505  0.99829569     0.95900
C239        C  0.51706020  0.00053044  0.00658532     0.95700
N240        N  0.57335458  0.05391379  0.21673963    -0.06400
N241        N  0.54133790  0.04244949  0.25414788    -0.59000
N242        N  0.68720060  0.02316780  0.16781281    -0.04600
N243        N  0.72733005  0.99250371  0.16721854    -0.60200
N244        N  0.69157314  0.05876980  0.20218620    -0.06500
N245        N  0.73538852  0.05330471  0.22593002    -0.59200
N246        N  0.57027438  0.01971312  0.18070975    -0.04200
N247        N  0.53629206  0.98433507  0.19286600    -0.60300
Mn248      Mn  0.62523491  0.02024113  0.11703412     1.18400
C249        C  0.51808951  0.99893826  0.23883438     0.98000
C250        C  0.75702067  0.01191807  0.20342143     0.98700
N251        N  0.56266813  0.17878560  0.02412847    -0.06500
N252        N  0.52922915  0.19079293  0.98827324    -0.62800
N253        N  0.68304008  0.20712493  0.05921829    -0.05300
N254        N  0.72347596  0.23565625  0.05097468    -0.63500
N255        N  0.67992839  0.17189620  0.02410605    -0.06000
N256        N  0.71734314  0.17562246  0.99100849    -0.63100
N257        N  0.56407981  0.21506974  0.05845563    -0.04900
N258        N  0.53156623  0.25262702  0.04610618    -0.63800
Mn259      Mn  0.62119294  0.11641317  0.02270073     1.10700
C260        C  0.50922577  0.23660140  0.00262927     0.99200
C261        C  0.74437980  0.21483384  0.00878162     0.99300
N262        N  0.68863187  0.17798665  0.21255910    -0.06000
N263        N  0.72155352  0.19006202  0.24865953    -0.61400
N264        N  0.56724184  0.20734216  0.17863996    -0.05300
N265        N  0.52592265  0.23577569  0.18639002    -0.58100
N266        N  0.57115184  0.17221021  0.21390717    -0.06600
N267        N  0.53318699  0.17610639  0.24669323    -0.60900
N268        N  0.68598440  0.21461283  0.17872221    -0.05600
N269        N  0.71717996  0.25240054  0.19151044    -0.58100
Mn270      Mn  0.63160985  0.11556689  0.21329237     1.20200
Mn271      Mn  0.62499518  0.21339752  0.11873546     1.10100
Cl272      Cl  0.62535702  0.11669396  0.11799553    -0.86100
C273        C  0.73996860  0.23626255  0.23483306     0.96200
C274        C  0.50504581  0.21511652  0.22837255     0.96000
C275        C  0.61439158  0.61597663  0.11510971    -0.02600
C276        C  0.11442366  0.62095562  0.61467915    -0.02600
N277        N  0.27304798  0.31331201  0.42573588    -0.06300
N278        N  0.24080490  0.27583318  0.43353809    -0.58400
N279        N  0.30517692  0.43036156  0.46137610    -0.05900
N280        N  0.29289770  0.46415110  0.49694921    -0.60500
N281        N  0.26918926  0.42980822  0.42661517    -0.05500
N282        N  0.23206166  0.46327996  0.43771911    -0.58300
N283        N  0.30997412  0.31293189  0.45946719    -0.05200
N284        N  0.30426854  0.27454335  0.49065162    -0.60900
C285        C  0.26159106  0.25165767  0.47332325     0.95900
C286        C  0.24764087  0.48518350  0.48125450     0.95700
N287        N  0.46374190  0.42674985  0.41996746    -0.06400
N288        N  0.49776960  0.46305818  0.42632072    -0.59000
N289        N  0.43113781  0.31227934  0.46337706    -0.04600
N290        N  0.44334415  0.28003457  0.50015363    -0.60200
N291        N  0.46605161  0.30976542  0.42718046    -0.06500
N292        N  0.50244433  0.27573817  0.43849412    -0.59200
N293        N  0.42710615  0.42979878  0.45449520    -0.04200
N294        N  0.43478903  0.46878152  0.48455294    -0.60300
Mn295      Mn  0.36832993  0.37152981  0.46148989     1.18400
C296        C  0.47839598  0.48941849  0.46597201     0.98000
C297        C  0.48753156  0.25674731  0.48381427     0.98700
N298        N  0.27226372  0.42633245  0.30866672    -0.06500
N299        N  0.24066728  0.46523107  0.30184979    -0.62800
N300        N  0.30366790  0.30873663  0.27291034    -0.05300
N301        N  0.29208035  0.27477419  0.23792684    -0.63500
N302        N  0.26786411  0.31013025  0.30824164    -0.06000
N303        N  0.23100218  0.27711020  0.29789068    -0.63100
N304        N  0.30790038  0.42468929  0.27337463    -0.04900
N305        N  0.30194376  0.46236259  0.24122486    -0.63800
Mn306      Mn  0.26888087  0.37000229  0.36744229     1.10700
C307        C  0.26026048  0.48675216  0.26003038     0.99200
C308        C  0.24718993  0.25456589  0.25440504     0.99300
N309        N  0.45862634  0.30506170  0.30919846    -0.06000
N310        N  0.49052156  0.26655621  0.30170305    -0.61400
N311        N  0.42810304  0.42231320  0.26802727    -0.05300
N312        N  0.43791969  0.45611605  0.23226950    -0.58100
N313        N  0.46512991  0.42196329  0.30158055    -0.06600
N314        N  0.50100857  0.45538319  0.28888983    -0.60900
N315        N  0.42311361  0.30618635  0.27411166    -0.05600
N316        N  0.43032988  0.26913208  0.24141279    -0.58100
Mn317      Mn  0.46515699  0.36571032  0.36440586     1.20200
Mn318      Mn  0.36575161  0.36557012  0.27061030     1.10100
Cl319      Cl  0.36705942  0.36835076  0.36613021    -0.86100
C320        C  0.47174831  0.24439031  0.25987968     0.96200
C321        C  0.48360345  0.47694513  0.24547535     0.96000
N322        N  0.52855608  0.67968010  0.67885064    -0.06300
N323        N  0.50078636  0.68352832  0.72024204    -0.58400
N324        N  0.55801312  0.72124512  0.56193319    -0.05900
N325        N  0.54889007  0.75666136  0.52751462    -0.60500
N326        N  0.52090794  0.68749426  0.56251857    -0.05500
N327        N  0.48562687  0.69982987  0.52845026    -0.58300
N328        N  0.56392867  0.71518044  0.67755762    -0.05200
N329        N  0.56059568  0.74444908  0.71765353    -0.60900
C330        C  0.52152612  0.72377078  0.74410665     0.95900
C331        C  0.50353981  0.74317826  0.50639985     0.95700
N332        N  0.71432618  0.68003924  0.55855886    -0.06400
N333        N  0.74775933  0.68784663  0.52207001    -0.59000
N334        N  0.68284498  0.71901087  0.67314526    -0.04600
N335        N  0.69516794  0.75596368  0.70463028    -0.60200
N336        N  0.71851763  0.68305553  0.67293492    -0.06500
N337        N  0.75584861  0.69480069  0.70457967    -0.59200
N338        N  0.67858763  0.71608956  0.55932165    -0.04200
N339        N  0.68659833  0.74952897  0.52341538    -0.60300
Mn340      Mn  0.62042639  0.71945411  0.61779136     1.18400
C341        C  0.72951041  0.73097686  0.50084489     0.98000
C342        C  0.74068422  0.74037027  0.72449704     0.98700
N343        N  0.52307220  0.56739457  0.55943696    -0.06500
N344        N  0.48991495  0.56124325  0.52267772    -0.62800
N345        N  0.55535717  0.52490980  0.67405071    -0.05300
N346        N  0.54419813  0.48845158  0.70701907    -0.63500
N347        N  0.51976865  0.56103341  0.67550465    -0.06000
N348        N  0.48379370  0.54986395  0.70959696    -0.63100
N349        N  0.55962613  0.53214055  0.55748390    -0.04900
N350        N  0.55264141  0.50168873  0.51880709    -0.63800
Mn351      Mn  0.52097880  0.62416690  0.61909394     1.10700
C352        C  0.50961410  0.52087267  0.49720843     0.99200
C353        C  0.49983887  0.50475471  0.72973639     0.99300
N354        N  0.71255162  0.56448301  0.67377624    -0.06000
N355        N  0.74375256  0.55872730  0.71212367    -0.61400
N356        N  0.68163945  0.52465251  0.55873681    -0.05300
N357        N  0.69423524  0.48763448  0.52657859    -0.58100
N358        N  0.71746987  0.55987362  0.55857787    -0.06600
N359        N  0.75485422  0.54761952  0.52625236    -0.60900
N360        N  0.67596408  0.53012056  0.67477508    -0.05600
N361        N  0.68103877  0.50054201  0.71439325    -0.58100
Mn362      Mn  0.71728191  0.62155845  0.61576960     1.20200
Mn363      Mn  0.61817969  0.52607750  0.61605545     1.10100
Cl364      Cl  0.61919597  0.62269749  0.61678811    -0.86100
C365        C  0.72297612  0.51943593  0.73741091     0.96200
C366        C  0.73961732  0.50284786  0.50592075     0.96000
C367        C  0.61900446  0.11790703  0.61506178    -0.02600
C368        C  0.12296526  0.12427522  0.11436882    -0.02600
C369        C  0.21374686  0.22230487  0.22194354    -0.05500
C370        C  0.21485052  0.16897591  0.22551385    -0.02600
C371        C  0.18562231  0.13843660  0.19199389     0.02400
C372        C  0.15354178  0.16080944  0.15298534    -0.05500
C373        C  0.14926864  0.21618353  0.15472083    -0.02600
C374        C  0.18107298  0.24562148  0.18674139     0.02400
C375        C  0.24856749  0.14524853  0.26256603     0.37000
C376        C  0.10879834  0.24549918  0.13015769     0.37000
C377        C  0.17927416  0.30121107  0.18454740     0.35500
C378        C  0.19353368  0.08369170  0.19635672     0.35500
N379        N  0.17794267  0.34537625  0.18292669    -0.39400
N380        N  0.20271097  0.04075792  0.20222192    -0.39400
N381        N  0.07663234  0.27120609  0.11322385    -0.38800
N382        N  0.27558718  0.12625939  0.29185161    -0.38800
C383        C  0.52104180  0.22234495  0.51578142    -0.05500
C384        C  0.52372142  0.16944795  0.50741094    -0.02600
C385        C  0.55450694  0.13688147  0.53862244     0.02400
C386        C  0.58640440  0.15664318  0.57880778    -0.05500
C387        C  0.58789505  0.21213204  0.58093961    -0.02600
C388        C  0.55301107  0.24327345  0.55272881     0.02400
C389        C  0.49277622  0.14806409  0.46721087     0.37000
C390        C  0.62845517  0.24043671  0.60540721     0.37000
C391        C  0.55180118  0.29841979  0.55986843     0.35500
C392        C  0.54888908  0.08256919  0.53008124     0.35500
N393        N  0.55073666  0.34226967  0.56540194    -0.39400
N394        N  0.54139457  0.04014223  0.52068335    -0.39400
N395        N  0.66036899  0.26565612  0.62249642    -0.38800
N396        N  0.46820732  0.13102160  0.43514322    -0.38800
C397        C  0.21332820  0.51884837  0.51337940    -0.05500
C398        C  0.18272971  0.49734411  0.55149636    -0.02600
C399        C  0.14672793  0.52754158  0.57970290     0.02400
C400        C  0.14666555  0.58294343  0.57717615    -0.05500
C401        C  0.17740669  0.60337616  0.53599134    -0.02600
C402        C  0.20855443  0.57141726  0.50414773     0.02400
C403        C  0.18687403  0.44258723  0.56029563     0.37000
C404        C  0.18144320  0.65775796  0.52686804     0.37000
C405        C  0.23792007  0.59316320  0.46260547     0.35500
C406        C  0.10656688  0.49827684  0.60415414     0.35500
N407        N  0.26121478  0.61051600  0.42948615    -0.39400
N408        N  0.07492461  0.47227454  0.62097211    -0.39400
N409        N  0.18746371  0.70028251  0.51677464    -0.38800
N410        N  0.19041497  0.39907541  0.56732768    -0.38800
C411        C  0.51301094  0.51566304  0.21396261    -0.05500
C412        C  0.50506981  0.51998160  0.16141988    -0.02600
C413        C  0.53644116  0.55219706  0.13092238     0.02400
C414        C  0.57638809  0.58392660  0.15203555    -0.05500
C415        C  0.57756625  0.58445315  0.20664715    -0.02600
C416        C  0.54945890  0.54841060  0.23605037     0.02400
C417        C  0.46683918  0.48812810  0.13702922     0.37000
C418        C  0.60212984  0.62423778  0.23561098     0.37000
C419        C  0.55746325  0.54641708  0.29030800     0.35500
C420        C  0.52897568  0.54734237  0.07691456     0.35500
N421        N  0.56439833  0.54479281  0.33338613    -0.39400
N422        N  0.51977771  0.54010786  0.03485445    -0.39400
N423        N  0.61945659  0.65548115  0.26117691    -0.38800
N424        N  0.43669362  0.46298925  0.11703074    -0.38800
C425        C  0.77271066  0.26918215  0.26869273    -0.05500
C426        C  0.74940551  0.30474152  0.30163555    -0.02600
C427        C  0.77902161  0.33330784  0.33686388     0.02400
C428        C  0.83517948  0.33287883  0.33556114    -0.05500
C429        C  0.85749531  0.29429666  0.30238859    -0.02600
C430        C  0.82659672  0.26296526  0.27059499     0.02400
C431        C  0.69351367  0.31082241  0.30019257     0.37000
C432        C  0.91282918  0.28773272  0.29664382     0.37000
C433        C  0.85081409  0.22541167  0.23737428     0.35500
C434        C  0.74877847  0.35640107  0.37723020     0.35500
N435        N  0.87021876  0.19570451  0.21077466    -0.39400
N436        N  0.72225364  0.37234612  0.40904301    -0.39400
N437        N  0.95617956  0.27965124  0.28885486    -0.38800
N438        N  0.64907694  0.31577222  0.29874762    -0.38800
C439        C  0.90477898  0.40931697  0.33357991    -0.05500
C440        C  0.93764959  0.44740144  0.35602499    -0.02600
C441        C  0.96872235  0.48121810  0.32647309     0.02400
C442        C  0.96846135  0.48003020  0.27317739    -0.05500
C443        C  0.93439057  0.44532734  0.25012318    -0.02600
C444        C  0.90138170  0.41293103  0.27903169     0.02400
C445        C  0.94308876  0.45179972  0.41024847     0.37000
C446        C  0.93213952  0.44297778  0.19527753     0.37000
C447        C  0.86021180  0.39004981  0.25015836     0.35500
C448        C  0.00140051  0.51778481  0.35187290     0.35500
N449        N  0.82761769  0.37446583  0.22491891    -0.39400
N450        N  0.02756559  0.54660399  0.37236781    -0.39400
N451        N  0.92959872  0.44098206  0.15172388    -0.38800
N452        N  0.95046510  0.45849287  0.45274179    -0.38800
C453        C  0.90933934  0.32996703  0.39968387    -0.05500
C454        C  0.88717037  0.28969916  0.43000355    -0.02600
C455        C  0.91771189  0.25798964  0.46235810     0.02400
C456        C  0.97157949  0.26518084  0.46751845    -0.05500
C457        C  0.99487002  0.30094856  0.43488080    -0.02600
C458        C  0.96533432  0.32989571  0.39926298     0.02400
C459        C  0.83186458  0.28175734  0.43255618     0.37000
C460        C  0.05063525  0.30668751  0.43608059     0.37000
C461        C  0.99540427  0.35371307  0.35957953     0.35500
C462        C  0.89196240  0.21980889  0.49311561     0.35500
N463        N  0.02145977  0.37066014  0.32822704    -0.39400
N464        N  0.87086322  0.18961243  0.51732114    -0.39400
N465        N  0.09499628  0.31158350  0.43688231    -0.38800
N466        N  0.78860084  0.27213992  0.43743455    -0.38800
C467        C  0.83954050  0.40673362  0.40716510    -0.05500
C468        C  0.84117556  0.40437459  0.46201171    -0.02600
C469        C  0.80587517  0.43282942  0.49280987     0.02400
C470        C  0.77331870  0.47029628  0.47214786    -0.05500
C471        C  0.77575324  0.47905725  0.42005075    -0.02600
C472        C  0.80726455  0.44785297  0.38782037     0.02400
C473        C  0.88247247  0.38002825  0.49005475     0.37000
C474        C  0.74363511  0.51965329  0.39921570     0.37000
C475        C  0.80230519  0.45802686  0.33437329     0.35500
C476        C  0.80476297  0.42536610  0.54727019     0.35500
N477        N  0.79513477  0.46962550  0.29286214    -0.39400
N478        N  0.80388531  0.41948170  0.59055309    -0.39400
N479        N  0.71795958  0.55197268  0.38280565    -0.38800
N480        N  0.91488394  0.36325893  0.51519045    -0.38800
C481        C  0.26445990  0.78104735  0.26780697    -0.05500
C482        C  0.29892602  0.81604202  0.24598238    -0.02600
C483        C  0.33009350  0.84835747  0.27619682     0.02400
C484        C  0.33287943  0.84273612  0.33071521    -0.05500
C485        C  0.29357632  0.81025995  0.35190198    -0.02600
C486        C  0.26094202  0.77977430  0.32107694     0.02400
C487        C  0.30042356  0.82120848  0.19126975     0.37000
C488        C  0.28717803  0.80438224  0.40598525     0.37000
C489        C  0.22590979  0.74412261  0.34517911     0.35500
C490        C  0.35215086  0.89110057  0.24894431     0.35500
N491        N  0.19841039  0.71569334  0.36486001    -0.39400
N492        N  0.36760611  0.92482462  0.22517995    -0.39400
N493        N  0.27903480  0.79697615  0.44832448    -0.38800
N494        N  0.30179142  0.82549026  0.14780676    -0.38800
C495        C  0.41073955  0.90879327  0.33409687    -0.05500
C496        C  0.41221729  0.96417072  0.33573219    -0.02600
C497        C  0.44494365  0.99257222  0.30286922     0.02400
C498        C  0.48121162  0.96821708  0.27089825    -0.05500
C499        C  0.48345180  0.91445802  0.27101658    -0.02600
C500        C  0.44883965  0.88527214  0.30097195     0.02400
C501        C  0.38596055  0.99479334  0.37376007     0.37000
C502        C  0.52208028  0.88825069  0.24000774     0.37000
C503        C  0.45158294  0.83046668  0.29323627     0.35500
C504        C  0.44092972  0.04808107  0.30192655     0.35500
N505        N  0.45683596  0.78765071  0.28342469    -0.39400
N506        N  0.43757630  0.09219557  0.30133372    -0.39400
N507        N  0.55257003  0.86704831  0.21536745    -0.38800
N508        N  0.36794301  0.02221909  0.40350398    -0.38800
C509        C  0.27734734  0.97114238  0.47457061    -0.05500
C510        C  0.31673644  0.93935808  0.49289290    -0.02600
C511        C  0.34118753  0.90262228  0.46112729     0.02400
C512        C  0.33639781  0.90476490  0.40655573    -0.05500
C513        C  0.29415156  0.93688060  0.38933242    -0.02600
C514        C  0.26470163  0.96815009  0.42326447     0.02400
C515        C  0.33011741  0.94225016  0.54607881     0.37000
C516        C  0.28061799  0.94121803  0.33658507     0.37000
C517        C  0.22278645  0.00020709  0.40473647     0.35500
C518        C  0.36160056  0.85885394  0.48824319     0.35500
N519        N  0.18958343  0.02599398  0.39003697    -0.39400
N520        N  0.37538672  0.82464870  0.51252888    -0.39400
N521        N  0.26644109  0.94724334  0.29568316    -0.38800
N522        N  0.34115995  0.94466037  0.58825327    -0.38800
C523        C  0.41230798  0.83586637  0.39740829    -0.05500
C524        C  0.45299559  0.85756035  0.42763739    -0.02600
C525        C  0.48384505  0.82725647  0.46070029     0.02400
C526        C  0.47528972  0.77428424  0.46646169    -0.05500
C527        C  0.43936452  0.75139778  0.43386750    -0.02600
C528        C  0.41118425  0.78063430  0.39769661     0.02400
C529        C  0.46182351  0.91218142  0.42975653     0.37000
C530        C  0.43181147  0.69650058  0.43645266     0.37000
C531        C  0.38627944  0.75089058  0.35890063     0.35500
C532        C  0.52196327  0.85247983  0.49190963     0.35500
N533        N  0.36861148  0.72471159  0.32846181    -0.39400
N534        N  0.55195464  0.87329261  0.51649039    -0.39400
N535        N  0.42532053  0.65288665  0.43857894    -0.38800
N536        N  0.47193748  0.95489565  0.43416382    -0.38800
C537        C  0.27139575  0.26719516  0.77345341    -0.05500
C538        C  0.32543136  0.25904755  0.77780844    -0.02600
C539        C  0.35668659  0.29047863  0.80932776     0.02400
C540        C  0.33536666  0.33174289  0.83965644    -0.05500
C541        C  0.27936067  0.33356740  0.84036591    -0.02600
C542        C  0.24902115  0.30469611  0.80556719     0.02400
C543        C  0.35059990  0.21972255  0.74728253     0.37000
C544        C  0.25009220  0.35939303  0.87980144     0.37000
C545        C  0.19338581  0.31259268  0.80459304     0.35500
C546        C  0.41183092  0.28038788  0.80681511     0.35500
N547        N  0.14912665  0.31927019  0.80391995    -0.39400
N548        N  0.45495102  0.26896713  0.80255944    -0.39400
N549        N  0.22460138  0.37801647  0.91100101    -0.38800
N550        N  0.37119819  0.18857123  0.72323995    -0.38800
C551        C  0.28236425  0.48253964  0.97043431    -0.05500
C552        C  0.31330210  0.44430492  0.99227192    -0.02600
C553        C  0.34582960  0.41180492  0.96221405     0.02400
C554        C  0.34218034  0.41012676  0.90734696    -0.05500
C555        C  0.31083585  0.45088326  0.88637529    -0.02600
C556        C  0.28323533  0.48676396  0.91732654     0.02400
C557        C  0.31180125  0.43825390  0.04684044     0.37000
C558        C  0.30359595  0.45627847  0.83242112     0.37000
C559        C  0.25595113  0.52924217  0.89381489     0.35500
C560        C  0.38682647  0.38735432  0.99056955     0.35500
N561        N  0.23453684  0.56314720  0.87492813    -0.39400
N562        N  0.41915131  0.37060095  0.01581760    -0.39400
N563        N  0.29518907  0.46346755  0.79017572    -0.38800
N564        N  0.31037914  0.43323243  0.09022029    -0.38800
C565        C  0.41128934  0.33280204  0.90241469    -0.05500
C566        C  0.38995488  0.29385797  0.93513344    -0.02600
C567        C  0.42175250  0.26248345  0.96667148     0.02400
C568        C  0.47545850  0.26936239  0.96893714    -0.05500
C569        C  0.49780381  0.30474020  0.93571353    -0.02600
C570        C  0.46733380  0.33303641  0.90052958     0.02400
C571        C  0.33471762  0.28693931  0.94033006     0.37000
C572        C  0.55361435  0.31043058  0.93634508     0.37000
C573        C  0.49643906  0.35517616  0.85924907     0.35500
C574        C  0.39866725  0.22391218  0.99882381     0.35500
N575        N  0.52179718  0.37048702  0.82654279    -0.39400
N576        N  0.38018784  0.19320600  0.02440304    -0.39400
N577        N  0.59802025  0.31491217  0.93703622    -0.38800
N578        N  0.29130089  0.27902690  0.94684770    -0.38800
C579        C  0.40509608  0.40726437  0.83130651    -0.05500
C580        C  0.43716617  0.44816095  0.85007115    -0.02600
C581        C  0.46648895  0.48027286  0.81716270     0.02400
C582        C  0.46749819  0.47226766  0.76473560    -0.05500
C583        C  0.43590595  0.43412154  0.74496724    -0.02600
C584        C  0.40216338  0.40531584  0.77650182     0.02400
C585        C  0.44352784  0.45726522  0.90359916     0.37000
C586        C  0.43646536  0.42608464  0.69059509     0.37000
C587        C  0.36063431  0.38124616  0.74933728     0.35500
C588        C  0.49762776  0.52105522  0.83765742     0.35500
N589        N  0.32788415  0.36476698  0.72488630    -0.39400
N590        N  0.52239762  0.55353951  0.85406082    -0.39400
N591        N  0.43712718  0.41971213  0.64737025    -0.38800
N592        N  0.45104219  0.46727338  0.94542957    -0.38800
C593        C  0.21855889  0.71936036  0.71276222    -0.05500
C594        C  0.23999466  0.68780967  0.67502335    -0.02600
C595        C  0.20910057  0.65248326  0.64781714     0.02400
C596        C  0.15294340  0.65411226  0.65029468    -0.05500
C597        C  0.13257090  0.68623955  0.69053878    -0.02600
C598        C  0.16513220  0.71652369  0.72174882     0.02400
C599        C  0.29548086  0.68945752  0.66622397     0.37000
C600        C  0.07763916  0.69161431  0.70000638     0.37000
C601        C  0.14317091  0.74667873  0.76281229     0.35500
C602        C  0.23829860  0.61061982  0.62536051     0.35500
N603        N  0.12583565  0.77061748  0.79566034    -0.39400
N604        N  0.26391960  0.57750488  0.60995883    -0.39400
N605        N  0.03470995  0.69868042  0.71055269    -0.38800
N606        N  0.33958719  0.69074060  0.65901092    -0.38800
C607        C  0.22752774  0.03128358  0.01108053    -0.05500
C608        C  0.17430099  0.03441194  0.00267956    -0.02600
C609        C  0.14149529  0.06328140  0.03551241     0.02400
C610        C  0.16179570  0.09343061  0.07670214    -0.05500
C611        C  0.21783178  0.09571787  0.07790669    -0.02600
C612        C  0.24907736  0.06183665  0.04865687     0.02400
C613        C  0.15293545  0.00585228  0.96078638     0.37000
C614        C  0.24632171  0.13614023  0.10226353     0.37000
C615        C  0.30476554  0.05988088  0.05574955     0.35500
C616        C  0.08659687  0.05749493  0.02726791     0.35500
N617        N  0.34903262  0.05822540  0.06139454    -0.39400
N618        N  0.04380121  0.05015024  0.01760781    -0.39400
N619        N  0.27127937  0.16816922  0.11934994    -0.38800
N620        N  0.13607546  0.98330137  0.92725250    -0.38800
C621        C  0.57471568  0.64742164  0.07933808    -0.05500
C622        C  0.57293865  0.64462694  0.02462688    -0.02600
C623        C  0.53940536  0.67675579  0.99600243     0.02400
C624        C  0.50217903  0.70849045  0.01948347    -0.05500
C625        C  0.49889148  0.70781339  0.07255900    -0.02600
C626        C  0.53463821  0.67908161  0.10200655     0.02400
C627        C  0.59948352  0.60569298  0.99503824     0.37000
C628        C  0.45789411  0.73681391  0.09764673     0.37000
C629        C  0.53106926  0.68678814  0.15614501     0.35500
C630        C  0.54339291  0.67690670  0.94116823     0.35500
N631        N  0.52548460  0.69616530  0.19852453    -0.39400
N632        N  0.54666643  0.67682303  0.89758336    -0.39400
N633        N  0.42535018  0.75969733  0.11794068    -0.38800
N634        N  0.61785757  0.57494054  0.96887223    -0.38800
C635        C  0.51873898  0.01647308  0.71460909    -0.05500
C636        C  0.57243413  0.01917236  0.72111824    -0.02600
C637        C  0.60362219  0.05103674  0.68977726     0.02400
C638        C  0.58162546  0.08421257  0.65157173    -0.05500
C639        C  0.52548261  0.08574778  0.65165433    -0.02600
C640        C  0.49565790  0.04998786  0.67985103     0.02400
C641        C  0.59609026  0.98742526  0.75969483     0.37000
C642        C  0.49551453  0.12716369  0.62981510     0.37000
C643        C  0.43972072  0.04945123  0.67505395     0.35500
C644        C  0.65896139  0.04530307  0.69579026     0.35500
N645        N  0.39522622  0.04908046  0.67125462    -0.39400
N646        N  0.70243078  0.03783091  0.70289783    -0.39400
N647        N  0.46942268  0.15994109  0.61486023    -0.38800
N648        N  0.61490506  0.96226005  0.79054582    -0.38800
C649        C  0.65555529  0.14900899  0.65431836    -0.05500
C650        C  0.63271879  0.17933680  0.69465094    -0.02600
C651        C  0.66274235  0.21104620  0.72692861     0.02400
C652        C  0.71683334  0.21514613  0.72081343    -0.05500
C653        C  0.74078664  0.18226681  0.68518066    -0.02600
C654        C  0.71160327  0.14815736  0.65446711     0.02400
C655        C  0.57729782  0.18249977  0.70244772     0.37000
C656        C  0.79689549  0.18128983  0.68183598     0.37000
C657        C  0.74211448  0.10971402  0.62804647     0.35500
C658        C  0.63648952  0.24194880  0.76510639     0.35500
N659        N  0.76879490  0.07952214  0.60891208    -0.39400
N660        N  0.61510466  0.26627065  0.79537305    -0.39400
N661        N  0.84153651  0.18027863  0.67916064    -0.38800
N662        N  0.53395979  0.18797945  0.71222884    -0.38800
C663        C  0.02400054  0.22109929  0.00997245    -0.05500
C664        C  0.00050363  0.18605533  0.04303023    -0.02600
C665        C  0.03037404  0.15314007  0.07446136     0.02400
C666        C  0.08620712  0.15637444  0.07642756    -0.05500
C667        C  0.10889390  0.18909758  0.03839052    -0.02600
C668        C  0.07832802  0.22100878  0.00672872     0.02400
C669        C  0.94446679  0.18174553  0.04292614     0.37000
C670        C  0.16430293  0.19464823  0.03266156     0.37000
C671        C  0.10383033  0.25686028  0.97305632     0.35500
C672        C  0.00117329  0.11314958  0.09906821     0.35500
N673        N  0.12453632  0.28540469  0.94664036    -0.39400
N674        N  0.97560662  0.08161137  0.11648465    -0.39400
N675        N  0.20748332  0.20227792  0.02442381    -0.38800
N676        N  0.89995927  0.17805405  0.04289345    -0.38800
C677        C  0.71726495  0.51333020  0.01889338    -0.05500
C678        C  0.68053498  0.49181228  0.05127053    -0.02600
C679        C  0.65206240  0.52249225  0.08612698     0.02400
C680        C  0.65253364  0.57798422  0.08346553    -0.05500
C681        C  0.69288766  0.59835215  0.05136646    -0.02600
C682        C  0.72536575  0.56613732  0.02118561     0.02400
C683        C  0.67420955  0.43659439  0.05061971     0.37000
C684        C  0.70004806  0.65274639  0.04482308     0.37000
C685        C  0.76631473  0.58775620  0.99040118     0.35500
C686        C  0.62997646  0.49389960  0.12770631     0.35500
N687        N  0.79902896  0.60500542  0.96603560    -0.39400
N688        N  0.61482097  0.46850088  0.16023491    -0.39400
N689        N  0.70848908  0.69525712  0.03663578    -0.38800
N690        N  0.66932316  0.39271300  0.05002145    -0.38800
C691        C  0.01587690  0.52224257  0.71873108    -0.05500
C692        C  0.99217211  0.55708652  0.68531378    -0.02600
C693        C  0.02177355  0.59201933  0.65572740     0.02400
C694        C  0.07783052  0.58987565  0.65416858    -0.05500
C695        C  0.10039294  0.55854766  0.69330811    -0.02600
C696        C  0.07013557  0.52535684  0.72413185     0.02400
C697        C  0.93605353  0.55944446  0.68350415     0.37000
C698        C  0.15570272  0.55646604  0.70141868     0.37000
C699        C  0.09639812  0.49172595  0.75954082     0.35500
C700        C  0.99199632  0.63319038  0.63312434     0.35500
N701        N  0.11784466  0.46511762  0.78748278    -0.39400
N702        N  0.96635486  0.66571911  0.61698033    -0.39400
N703        N  0.19903000  0.55239320  0.71121889    -0.32400
N704        N  0.89141543  0.56169366  0.68207683    -0.38800
C705        C  0.72033517  0.71866602  0.20703788    -0.05500
C706        C  0.68365232  0.74026875  0.17404038    -0.02600
C707        C  0.65290019  0.70932974  0.14177803     0.02400
C708        C  0.65303432  0.65391552  0.14533923    -0.05500
C709        C  0.69414572  0.63324782  0.17609346    -0.02600
C710        C  0.72668999  0.66488920  0.20586960     0.02400
C711        C  0.67966364  0.79564656  0.17054418     0.37000
C712        C  0.70289107  0.57864356  0.18083240     0.37000
C713        C  0.76563113  0.64072986  0.23742982     0.35500
C714        C  0.62742241  0.73729697  0.10160225     0.35500
N715        N  0.79650172  0.62088802  0.26224275    -0.39400
N716        N  0.60918599  0.76186007  0.06991534    -0.39400
N717        N  0.71317335  0.53601243  0.18712789    -0.38800
N718        N  0.67642370  0.83965578  0.16742956    -0.38800
C719        C  0.02877151  0.02403817  0.22023328    -0.05500
C720        C  0.02940890  0.07754713  0.22515703    -0.02600
C721        C  0.05849894  0.10846848  0.19145633     0.02400
C722        C  0.09074437  0.08691969  0.15167674    -0.05500
C723        C  0.09351598  0.03148913  0.15158644    -0.02600
C724        C  0.06080607  0.00148360  0.18307545     0.02400
C725        C  0.00026328  0.10164833  0.26607617     0.37000
C726        C  0.13285909  0.00226614  0.12475074     0.37000
C727        C  0.06055164  0.94621217  0.17710165     0.35500
C728        C  0.05151508  0.16305959  0.19830263     0.35500
N729        N  0.06066469  0.90228401  0.17215540    -0.39400
N730        N  0.04284737  0.20545435  0.20779911    -0.39400
N731        N  0.16383843  0.97627365  0.10575772    -0.38800
N732        N  0.97722310  0.12109750  0.29852787    -0.38800
C733        C  0.08059067  0.65612630  0.57618918    -0.05500
C734        C  0.08206352  0.71139265  0.57313309    -0.02600
C735        C  0.04875719  0.73970202  0.54044877     0.02400
C736        C  0.01669978  0.71542191  0.50508817    -0.05500
C737        C  0.01627117  0.66158297  0.50516320    -0.02600
C738        C  0.04754694  0.63251306  0.53911326     0.02400
C739        C  0.12113384  0.74180862  0.59746191     0.37000
C740        C  0.98250920  0.63515895  0.47042410     0.37000
C741        C  0.04212081  0.57757083  0.53580188     0.35500
C742        C  0.04723766  0.79518567  0.54402769     0.35500
N743        N  0.03453194  0.53454535  0.52973646    -0.39400
N744        N  0.04611304  0.83928436  0.54713425    -0.39400
N745        N  0.95522128  0.61385516  0.44337356    -0.38800
N746        N  0.15198397  0.76851304  0.61421209    -0.38800
C747        C  0.71427041  0.02110378  0.50312660    -0.05500
C748        C  0.71253719  0.07495631  0.50065353    -0.02600
C749        C  0.68343702  0.10482366  0.53634696     0.02400
C750        C  0.65181501  0.08199071  0.57543044    -0.05500
C751        C  0.64984867  0.02652756  0.57256653    -0.02600
C752        C  0.68339211  0.99758001  0.54007327     0.02400
C753        C  0.74065620  0.10042990  0.46039865     0.37000
C754        C  0.60997938  0.99641355  0.59649009     0.37000
C755        C  0.68621660  0.94229109  0.54506026     0.35500
C756        C  0.69008936  0.15963113  0.53305893     0.35500
N757        N  0.68864636  0.89834245  0.54930973    -0.39400
N758        N  0.69860122  0.20257805  0.52766068    -0.39400
N759        N  0.57854704  0.96994238  0.61296158    -0.38800
N760        N  0.76276569  0.12100758  0.42834648    -0.38800
C761        C  0.83956560  0.90230826  0.90325890    -0.05500
C762        C  0.84191975  0.95758410  0.90377356    -0.02600
C763        C  0.80603707  0.98762991  0.93213161     0.02400
C764        C  0.77278665  0.96516729  0.96787461    -0.05500
C765        C  0.77649842  0.91170464  0.97495671    -0.02600
C766        C  0.80829443  0.88074151  0.94307765     0.02400
C767        C  0.88447440  0.98603257  0.88210623     0.37000
C768        C  0.74479142  0.88699320  0.01318037     0.37000
C769        C  0.80476119  0.82605252  0.95103222     0.35500
C770        C  0.80553650  0.04285082  0.92588224     0.35500
N771        N  0.79935698  0.78338464  0.96088128    -0.39400
N772        N  0.80528596  0.08670680  0.92039613    -0.39400
N773        N  0.71982238  0.86681176  0.04342747    -0.38800
N774        N  0.91808995  0.01054208  0.86681179    -0.38800
C775        C  0.90749764  0.89809970  0.82685153    -0.05500
C776        C  0.96344281  0.89600918  0.82522610    -0.02600
C777        C  0.99242764  0.92916164  0.79354798     0.02400
C778        C  0.96811760  0.96123329  0.75799052    -0.05500
C779        C  0.91396969  0.95965274  0.75445061    -0.02600
C780        C  0.88405959  0.93039786  0.78880093     0.02400
C781        C  0.99405493  0.85716616  0.85050032     0.37000
C782        C  0.88827234  0.98746825  0.71409686     0.37000
C783        C  0.82856930  0.93786122  0.78552251     0.35500
C784        C  0.04848682  0.92951459  0.79743751     0.35500
N785        N  0.78514774  0.94703264  0.78006232    -0.39400
N786        N  0.09304933  0.92928073  0.80062900    -0.39400
N787        N  0.86752576  0.00917564  0.68190582    -0.38800
N788        N  0.02100519  0.82646536  0.86802139    -0.38800
C789        C  0.83424675  0.83490587  0.82658471    -0.05500
C790        C  0.85703991  0.80408231  0.78664357    -0.02600
C791        C  0.82659432  0.77457873  0.75344270     0.02400
C792        C  0.77261482  0.77260675  0.75908837    -0.05500
C793        C  0.74884346  0.80369422  0.79603895    -0.02600
C794        C  0.77823963  0.83659981  0.82709701     0.02400
C795        C  0.91249354  0.79765774  0.78065827     0.37000
C796        C  0.69295708  0.80198314  0.80240420     0.37000
C797        C  0.74773445  0.87472108  0.85398554     0.35500
C798        C  0.85163726  0.74576637  0.71296852     0.35500
N799        N  0.72056241  0.90466091  0.87284401    -0.39400
N800        N  0.87184938  0.72286425  0.68094599    -0.39400
N801        N  0.64854719  0.80085707  0.80752597    -0.38800
N802        N  0.95582491  0.78933129  0.77295343    -0.38800
C803        C  0.90319183  0.82684716  0.90050762    -0.05500
C804        C  0.93453910  0.84609119  0.94129981    -0.02600
C805        C  0.96419935  0.81288017  0.97248376     0.02400
C806        C  0.96610338  0.76025172  0.96315655    -0.05500
C807        C  0.93612105  0.74011985  0.92444230    -0.02600
C808        C  0.90093407  0.77149298  0.89766188     0.02400
C809        C  0.93969280  0.90016213  0.95148776     0.37000
C810        C  0.94027034  0.68579504  0.91316038     0.37000
C811        C  0.85854906  0.74361661  0.87559224     0.35500
C812        C  0.99576731  0.83328345  0.01276016     0.35500
N813        N  0.82516060  0.71915677  0.86018810    -0.39400
N814        N  0.02119633  0.84946681  0.04461543    -0.39400
N815        N  0.94406841  0.64273888  0.90376884    -0.38800
N816        N  0.94632429  0.94224666  0.96285766    -0.38800
loop_ 
_geom_bond_atom_site_label_1 
_geom_bond_atom_site_label_2 
_geom_bond_distance 
_geom_bond_site_symmetry_2 
_ccdc_geom_bond_type 
C1          C761   1.616       .  S
C1          C775   1.617       .  S
C1          C789   1.615       .  S
C1          C803   1.618       .  S
N2            N3   1.330       .  A
N2            N8   1.316       .  A
N2          Mn31   2.256       .  S
N3           C10   1.363       .  A
N4            N6   1.312       .  A
N4            N5   1.306       .  A
N4          Mn20   2.102       .  S
N5           C11   1.337       .  A
N6            N7   1.308       .  A
N6          Mn31   2.167       .  S
N7           C11   1.351       .  A
N8            N9   1.327   1_565  A
N8          Mn20   2.217       .  S
N9           C10   1.357   1_545  A
C10         C747   1.527   1_565  S
C11         C250   1.400   1_565  S
N12          N18   1.310       .  A
N12          N13   1.325   1_655  A
N12         Mn42   2.205       .  S
N13          C21   1.357   1_455  A
N14          N15   1.304       .  A
N14          N16   1.315       .  A
N14         Mn20   2.128       .  S
N15          C22   1.339       .  A
N16          N17   1.307   1_655  A
N16         Mn42   2.128       .  S
N17          C22   1.340   1_455  A
N18          N19   1.323   1_565  A
N18         Mn20   2.213       .  S
N19          C21   1.357   1_545  A
Mn20        Cl44   2.529       .  S
C21         C719   1.515   1_665  S
C22         C159   1.395   1_665  S
N23          N24   1.329       .  A
N23          N29   1.313       .  A
N23         Mn31   2.240       .  S
N24          C32   1.363       .  A
N25          N27   1.318       .  A
N25          N26   1.310       .  A
N25         Mn43   2.162       .  S
N26          C33   1.344       .  A
N27          N28   1.311       .  A
N27         Mn31   2.165       .  S
N28          C33   1.345       .  A
N29          N30   1.324       .  A
N29         Mn43   2.210       .  S
N30          C32   1.355       .  A
Mn31        Cl44   2.538       .  S
C32         C705   1.529       .  S
C33         C341   1.418       .  S
N34          N35   1.323   1_655  A
N34          N40   1.313       .  A
N34         Mn42   2.209       .  S
N35          C45   1.356   1_455  A
N36          N37   1.309       .  A
N36          N38   1.310       .  A
N36         Mn43   2.161       .  S
N37          C46   1.350       .  A
N38          N39   1.308       .  A
N38         Mn42   2.114       .  S
N39          C46   1.341       .  A
N40          N41   1.328       .  A
N40         Mn43   2.239       .  S
N41          C45   1.362       .  A
Mn42        Cl44   2.540       .  S
Mn43        Cl44   2.528       .  S
C45         C736   1.526   1_655  S
C46         C193   1.405   1_655  S
N47          N48   1.307   1_655  A
N47          N53   1.314       .  A
N47         Mn76   2.130       .  S
N48          C55   1.340   1_455  A
N49          N51   1.311       .  A
N49          N50   1.322       .  A
N49         Mn65   2.200       .  S
N50          C56   1.356       .  A
N51          N52   1.323   1_655  A
N51         Mn76   2.209       .  S
N52          C56   1.358   1_455  A
N53          N54   1.305       .  A
N53         Mn65   2.115       .  S
N54          C55   1.336       .  A
C55         C204   1.394   1_656  S
C56         C663   1.512   1_656  S
N57          N63   1.311       .  A
N57          N58   1.310       .  A
N57         Mn87   2.166       .  S
N58          C66   1.350       .  A
N59          N60   1.323       .  A
N59          N61   1.314       .  A
N59         Mn65   2.204       .  S
N60          C67   1.353       .  A
N61          N62   1.326       .  A
N61         Mn87   2.230       .  S
N62          C67   1.357       .  A
N63          N64   1.307       .  A
N63         Mn65   2.110       .  S
N64          C66   1.337       .  A
Mn65        Cl89   2.526       .  S
C66         C261   1.404   1_556  S
C67         C677   1.498   1_556  S
N68          N69   1.306       .  A
N68          N74   1.312       .  A
N68         Mn76   2.118       .  S
N69          C77   1.338       .  A
N70          N72   1.314       .  A
N70          N71   1.330       .  A
N70         Mn88   2.250       .  S
N71          C78   1.364       .  A
N72          N73   1.323       .  A
N72         Mn76   2.211       .  S
N73          C78   1.356       .  A
N74          N75   1.311       .  A
N74         Mn88   2.165       .  S
N75          C77   1.350       .  A
Mn76        Cl89   2.529       .  S
C77         C183   1.404   1_655  S
C78         C691   1.530   1_655  S
N79          N80   1.313       .  A
N79          N85   1.315       .  A
N79         Mn87   2.158       .  S
N80          C90   1.345       .  A
N81          N82   1.328       .  A
N81          N83   1.314       .  A
N81         Mn88   2.242       .  S
N82          C91   1.362       .  A
N83          N84   1.326       .  A
N83         Mn87   2.224       .  S
N84          C91   1.359       .  A
N85          N86   1.309       .  A
N85         Mn88   2.168       .  S
N86          C90   1.346       .  A
Mn87        Cl89   2.536       .  S
Mn88        Cl89   2.530       .  S
C90         C365   1.416       .  S
C91         C652   1.533       .  S
N92          N93   1.325       .  A
N92          N98   1.312       .  A
N92        Mn121   2.223       .  S
N93         C100   1.358       .  A
N94          N96   1.312       .  A
N94          N95   1.307       .  A
N94        Mn110   2.119       .  S
N95         C101   1.339       .  A
N96          N97   1.309       .  A
N96        Mn121   2.174       .  S
N97         C101   1.351       .  A
N98          N99   1.324   1_556  A
N98        Mn110   2.205       .  S
N99         C100   1.356   1_554  A
C100        C624   1.513   1_556  S
C101        C228   1.408   1_556  S
N102        N108   1.311       .  A
N102        N103   1.324   1_565  A
N102       Mn132   2.210       .  S
N103        C111   1.355   1_545  A
N104        N105   1.307       .  A
N104        N106   1.314       .  A
N104       Mn110   2.128       .  S
N105        C112   1.340       .  A
N106        N107   1.303       .  A
N106       Mn132   2.121       .  S
N107        C112   1.338       .  A
N108        N109   1.323       .  A
N108       Mn110   2.199       .  S
N109        C111   1.353       .  A
Mn110      Cl134   2.535       .  S
C111        C607   1.493   1_566  S
C112        C239   1.392   1_566  S
N113        N114   1.327       .  A
N113        N119   1.315       .  A
N113       Mn121   2.218       .  S
N114        C122   1.356       .  A
N115        N117   1.316       .  A
N115        N116   1.308       .  A
N115       Mn133   2.168       .  S
N116        C123   1.346       .  A
N117        N118   1.314       .  A
N117       Mn121   2.165       .  S
N118        C123   1.346       .  A
N119        N120   1.330       .  A
N119       Mn133   2.245       .  S
N120        C122   1.359       .  A
Mn121      Cl134   2.534       .  S
C122        C593   1.516       .  S
C123        C330   1.416       .  S
N124        N125   1.326       .  A
N124        N130   1.314       .  A
N124       Mn132   2.208       .  S
N125        C135   1.353       .  A
N126        N127   1.310       .  A
N126        N128   1.313       .  A
N126       Mn133   2.168       .  S
N127        C136   1.350       .  A
N128        N129   1.306       .  A
N128       Mn132   2.114       .  S
N129        C136   1.337       .  A
N130        N131   1.330       .  A
N130       Mn133   2.251       .  S
N131        C135   1.361       .  A
Mn132      Cl134   2.528       .  S
Mn133      Cl134   2.532       .  S
C135        C635   1.514   1_565  S
C136        C148   1.402   1_565  S
C137        C540   1.637       .  S
C137        C554   1.635       .  S
C137        C565   1.629       .  S
C137        C579   1.636       .  S
C138        C484   1.628       .  S
C138        C495   1.619       .  S
C138        C512   1.624       .  S
C138        C523   1.623       .  S
C139        C428   1.632       .  S
C139        C439   1.634       .  S
C139        C453   1.631       .  S
C139        C467   1.629       .  S
N140        N141   1.307       .  A
N140        N146   1.312       .  A
N140       Mn169   2.158       .  S
N141        C148   1.348       .  A
N142        N144   1.314       .  A
N142        N143   1.323   1_545  A
N142       Mn158   2.199       .  S
N143        C149   1.352   1_565  A
N144        N145   1.327       .  A
N144       Mn169   2.231       .  S
N145        C149   1.358       .  A
N146        N147   1.308   1_545  A
N146       Mn158   2.118       .  S
N147        C148   1.339   1_565  A
C149        C509   1.498   1_545  S
N150        N156   1.313       .  A
N150        N151   1.304   1_455  A
N150       Mn180   2.126       .  S
N151        C159   1.339   1_655  A
N152        N153   1.321   1_545  A
N152        N154   1.312       .  A
N152       Mn158   2.198       .  S
N153        C160   1.354   1_455  A
N154        N155   1.325   1_455  A
N154       Mn180   2.221       .  S
N155        C160   1.359   1_545  A
N156        N157   1.307   1_545  A
N156       Mn158   2.122       .  S
N157        C159   1.340   1_565  A
Mn158      Cl182   2.532       .  S
C160        C778   1.511       .  S
N161        N162   1.312       .  A
N161        N167   1.315       .  A
N161       Mn169   2.152       .  S
N162        C170   1.344       .  A
N163        N165   1.314       .  A
N163        N164   1.332       .  A
N163       Mn181   2.256       .  S
N164        C171   1.365       .  A
N165        N166   1.326       .  A
N165       Mn169   2.225       .  S
N166        C171   1.358       .  A
N167        N168   1.310       .  A
N167       Mn181   2.166       .  S
N168        C170   1.346       .  A
Mn169      Cl182   2.535       .  S
C170        C285   1.414       .  S
C171        C537   1.541       .  S
N172        N173   1.309   1_455  A
N172        N178   1.314       .  A
N172       Mn180   2.124       .  S
N173        C183   1.339   1_655  A
N174        N175   1.330       .  A
N174        N176   1.314       .  A
N174       Mn181   2.252       .  S
N175        C184   1.364       .  A
N176        N177   1.324   1_455  A
N176       Mn180   2.213       .  S
N177        C184   1.356   1_655  A
N178        N179   1.308       .  A
N178       Mn181   2.167       .  S
N179        C183   1.348       .  A
Mn180      Cl182   2.532       .  S
Mn181      Cl182   2.534       .  S
C184        C456   1.532   1_455  S
N185        N186   1.307       .  A
N185        N191   1.310       .  A
N185       Mn214   2.160       .  S
N186        C193   1.349       .  A
N187        N189   1.313       .  A
N187        N188   1.323   1_455  A
N187       Mn203   2.206       .  S
N188        C194   1.356   1_655  A
N189        N190   1.331       .  A
N189       Mn214   2.254       .  S
N190        C194   1.365       .  A
N191        N192   1.310   1_455  A
N191       Mn203   2.113       .  S
N192        C193   1.341   1_655  A
C194        C442   1.534   1_455  S
N195        N201   1.313       .  A
N195        N196   1.305   1_554  A
N195       Mn225   2.121       .  S
N196        C204   1.338   1_556  A
N197        N198   1.323   1_455  A
N197        N199   1.310       .  A
N197       Mn203   2.205       .  S
N198        C205   1.355   1_554  A
N199        N200   1.322   1_554  A
N199       Mn225   2.192       .  S
N200        C205   1.352   1_455  A
N201        N202   1.305   1_455  A
N201       Mn203   2.131       .  S
N202        C204   1.341   1_655  A
Mn203      Cl227   2.539       .  S
C205        C806   1.489       .  S
N206        N207   1.312       .  A
N206        N212   1.316       .  A
N206       Mn214   2.154       .  S
N207        C215   1.341       .  A
N208        N210   1.315       .  A
N208        N209   1.326       .  A
N208       Mn226   2.228       .  S
N209        C216   1.359       .  A
N210        N211   1.326       .  A
N210       Mn214   2.215       .  S
N211        C216   1.356       .  A
N212        N213   1.313       .  A
N212       Mn226   2.167       .  S
N213        C215   1.343       .  A
Mn214      Cl227   2.526       .  S
C215        C307   1.416       .  S
C216        C481   1.522       .  S
N217        N218   1.307   1_554  A
N217        N223   1.311       .  A
N217       Mn225   2.107       .  S
N218        C228   1.337   1_556  A
N219        N220   1.332       .  A
N219        N221   1.314       .  A
N219       Mn226   2.262       .  S
N220        C229   1.366       .  A
N221        N222   1.322   1_554  A
N221       Mn225   2.192       .  S
N222        C229   1.352   1_556  A
N223        N224   1.311       .  A
N223       Mn226   2.179       .  S
N224        C228   1.353       .  A
Mn225      Cl227   2.526       .  S
Mn226      Cl227   2.538       .  S
C229        C551   1.522   1_554  S
N230        N231   1.325   1_554  A
N230        N236   1.310       .  A
N230       Mn259   2.215       .  S
N231        C238   1.360   1_545  A
N232        N234   1.314       .  A
N232        N233   1.307   1_545  A
N232       Mn248   2.121       .  S
N233        C239   1.338   1_565  A
N234        N235   1.303   1_554  A
N234       Mn259   2.124       .  S
N235        C239   1.338   1_556  A
N236        N237   1.319   1_545  A
N236       Mn248   2.187       .  S
N237        C238   1.353   1_554  A
C238        C764   1.513       .  S
N240        N246   1.312       .  A
N240        N241   1.325       .  A
N240       Mn270   2.223       .  S
N241        C249   1.358   1_545  A
N242        N243   1.306   1_545  A
N242        N244   1.309       .  A
N242       Mn248   2.104       .  S
N243        C250   1.337   1_565  A
N244        N245   1.308       .  A
N244       Mn270   2.157       .  S
N245        C250   1.351       .  A
N246        N247   1.323   1_545  A
N246       Mn248   2.200       .  S
N247        C249   1.356       .  A
Mn248      Cl272   2.526       .  S
C249        C498   1.512       .  S
N251        N252   1.326   1_554  A
N251        N257   1.316       .  A
N251       Mn259   2.216       .  S
N252        C260   1.354   1_556  A
N253        N255   1.313       .  A
N253        N254   1.310       .  A
N253       Mn271   2.176       .  S
N254        C261   1.351       .  A
N255        N256   1.307   1_554  A
N255       Mn259   2.116       .  S
N256        C261   1.337   1_556  A
N257        N258   1.330       .  A
N257       Mn271   2.253       .  S
N258        C260   1.361       .  A
Mn259      Cl272   2.529       .  S
C260        C568   1.514   1_554  S
N262        N263   1.326       .  A
N262        N268   1.315       .  A
N262       Mn270   2.215       .  S
N263        C273   1.355       .  A
N264        N265   1.312       .  A
N264        N266   1.316       .  A
N264       Mn271   2.180       .  S
N265        C274   1.350       .  A
N266        N267   1.310       .  A
N266       Mn270   2.145       .  S
N267        C274   1.341       .  A
N268        N269   1.330       .  A
N268       Mn271   2.249       .  S
N269        C273   1.360       .  A
Mn270      Cl272   2.532       .  S
Mn271      Cl272   2.532       .  S
C273        C425   1.514       .  S
C274        C320   1.415       .  S
C275        C414   1.624       .  S
C275        C621   1.621       .  S
C275        C680   1.623       .  S
C275        C708   1.632       .  S
C276        C400   1.626       .  S
C276        C596   1.634       .  S
C276        C694   1.631       .  S
C276        C733   1.629       .  S
N277        N278   1.311       .  A
N277        N283   1.314       .  A
N277       Mn306   2.146       .  S
N278        C285   1.343       .  A
N279        N281   1.315       .  A
N279        N280   1.327       .  A
N279       Mn295   2.234       .  S
N280        C286   1.357       .  A
N281        N282   1.325       .  A
N281       Mn306   2.216       .  S
N282        C286   1.354       .  A
N283        N284   1.311       .  A
N283       Mn295   2.167       .  S
N284        C285   1.347       .  A
C286        C397   1.504       .  S
N287        N293   1.315       .  A
N287        N288   1.315       .  A
N287       Mn317   2.172       .  S
N288        C296   1.348       .  A
N289        N290   1.328       .  A
N289        N291   1.314       .  A
N289       Mn295   2.236       .  S
N290        C297   1.358       .  A
N291        N292   1.326       .  A
N291       Mn317   2.218       .  S
N292        C297   1.355       .  A
N293        N294   1.312       .  A
N293       Mn295   2.174       .  S
N294        C296   1.347       .  A
Mn295      Cl319   2.529       .  S
C296        C352   1.429       .  S
C297        C383   1.509       .  S
N298        N299   1.313       .  A
N298        N304   1.309       .  A
N298       Mn306   2.148       .  S
N299        C307   1.343       .  A
N300        N302   1.313       .  A
N300        N301   1.323       .  A
N300       Mn318   2.203       .  S
N301        C308   1.352       .  A
N302        N303   1.325       .  A
N302       Mn306   2.218       .  S
N303        C308   1.356       .  A
N304        N305   1.313       .  A
N304       Mn318   2.143       .  S
N305        C307   1.341       .  A
Mn306      Cl319   2.542       .  S
C308        C369   1.493       .  S
N309        N310   1.310       .  A
N309        N315   1.313       .  A
N309       Mn317   2.167       .  S
N310        C320   1.347       .  A
N311        N312   1.322       .  A
N311        N313   1.312       .  A
N311       Mn318   2.207       .  S
N312        C321   1.356       .  A
N313        N314   1.325       .  A
N313       Mn317   2.224       .  S
N314        C321   1.360       .  A
N315        N316   1.311       .  A
N315       Mn318   2.141       .  S
N316        C320   1.342       .  A
Mn317      Cl319   2.540       .  S
Mn318      Cl319   2.533       .  S
C321        C411   1.521       .  S
N322        N323   1.310       .  A
N322        N328   1.313       .  A
N322       Mn351   2.160       .  S
N323        C330   1.347       .  A
N324        N326   1.313       .  A
N324        N325   1.322       .  A
N324       Mn340   2.200       .  S
N325        C331   1.355       .  A
N326        N327   1.327       .  A
N326       Mn351   2.236       .  S
N327        C331   1.362       .  A
N328        N329   1.311       .  A
N328       Mn340   2.152       .  S
N329        C330   1.346       .  A
C331        C526   1.523       .  S
N332        N338   1.315       .  A
N332        N333   1.311       .  A
N332       Mn362   2.157       .  S
N333        C341   1.345       .  A
N334        N335   1.321       .  A
N334        N336   1.312       .  A
N334       Mn340   2.191       .  S
N335        C342   1.353       .  A
N336        N337   1.323       .  A
N336       Mn362   2.211       .  S
N337        C342   1.357       .  A
N338        N339   1.311       .  A
N338       Mn340   2.154       .  S
N339        C341   1.344       .  A
Mn340      Cl364   2.534       .  S
C342        C792   1.504       .  S
N343        N344   1.314       .  A
N343        N349   1.316       .  A
N343       Mn351   2.169       .  S
N344        C352   1.347       .  A
N345        N347   1.314       .  A
N345        N346   1.327       .  A
N345       Mn363   2.230       .  S
N346        C353   1.357       .  A
N347        N348   1.328       .  A
N347       Mn351   2.230       .  S
N348        C353   1.359       .  A
N349        N350   1.313       .  A
N349       Mn363   2.182       .  S
N350        C352   1.349       .  A
Mn351      Cl364   2.543       .  S
C353        C582   1.514       .  S
N354        N355   1.311       .  A
N354        N360   1.314       .  A
N354       Mn362   2.149       .  S
N355        C365   1.344       .  A
N356        N357   1.327       .  A
N356        N358   1.316       .  A
N356       Mn363   2.230       .  S
N357        C366   1.357       .  A
N358        N359   1.325       .  A
N358       Mn362   2.214       .  S
N359        C366   1.354       .  A
N360        N361   1.312       .  A
N360       Mn363   2.170       .  S
N361        C365   1.348       .  A
Mn362      Cl364   2.540       .  S
Mn363      Cl364   2.531       .  S
C366        C470   1.503       .  S
C367        C386   1.631       .  S
C367        C638   1.630       .  S
C367        C649   1.635       .  S
C367        C750   1.636       .  S
C368        C372   1.618       .  S
C368        C610   1.620       .  S
C368        C666   1.619       .  S
C368        C722   1.624       .  S
C369        C370   1.400       .  A
C369        C374   1.400       .  A
C370        C371   1.423       .  A
C370        C375   1.454       .  S
C371        C372   1.451       .  A
C371        C378   1.451       .  S
C372        C373   1.454       .  A
C373        C374   1.420       .  A
C373        C376   1.451       .  S
C374        C377   1.457       .  S
C375        N382   1.158       .  T
C376        N381   1.158       .  T
C377        N379   1.157       .  T
C378        N380   1.157       .  T
C383        C384   1.404       .  A
C383        C388   1.402       .  A
C384        C385   1.429       .  A
C384        C389   1.453       .  S
C385        C386   1.451       .  A
C385        C392   1.449       .  S
C386        C387   1.455       .  A
C387        C388   1.426       .  A
C387        C390   1.449       .  S
C388        C391   1.456       .  S
C389        N396   1.157       .  T
C390        N395   1.158       .  T
C391        N393   1.157       .  T
C392        N394   1.157       .  T
C397        C398   1.402       .  A
C397        C402   1.403       .  A
C398        C399   1.423       .  A
C398        C403   1.456       .  S
C399        C400   1.452       .  A
C399        C406   1.448       .  S
C400        C401   1.452       .  A
C401        C402   1.427       .  A
C401        C404   1.449       .  S
C402        C405   1.454       .  S
C403        N410   1.157       .  T
C404        N409   1.157       .  T
C405        N407   1.157       .  T
C406        N408   1.158       .  T
C411        C412   1.413       .  A
C411        C416   1.412       .  A
C412        C413   1.425       .  A
C412        C417   1.456       .  S
C413        C414   1.449       .  A
C413        C420   1.451       .  S
C414        C415   1.448       .  A
C415        C416   1.427       .  A
C415        C418   1.449       .  S
C416        C419   1.455       .  S
C417        N424   1.158       .  T
C418        N423   1.158       .  T
C419        N421   1.158       .  T
C420        N422   1.157       .  T
C425        C426   1.404       .  A
C425        C430   1.404       .  A
C426        C427   1.429       .  A
C426        C431   1.455       .  S
C427        C428   1.454       .  A
C427        C434   1.449       .  S
C428        C429   1.451       .  A
C429        C430   1.431       .  A
C429        C432   1.448       .  S
C430        C433   1.453       .  S
C431        N438   1.157       .  T
C432        N437   1.157       .  T
C433        N435   1.158       .  T
C434        N436   1.158       .  T
C439        C440   1.449       .  A
C439        C444   1.452       .  A
C440        C441   1.433       .  A
C440        C445   1.450       .  S
C441        C442   1.413       .  A
C441        C448   1.453   1_655  S
C442        C443   1.415       .  A
C443        C444   1.430       .  A
C443        C446   1.456       .  S
C444        C447   1.451       .  S
C445        N452   1.157       .  T
C446        N451   1.158       .  T
C447        N449   1.158       .  T
C448        N450   1.157       .  T
C453        C454   1.447       .  A
C453        C458   1.450       .  A
C454        C455   1.431       .  A
C454        C459   1.451       .  S
C455        C456   1.417       .  A
C455        C462   1.455       .  S
C456        C457   1.413       .  A
C457        C458   1.431       .  A
C457        C460   1.454   1_655  S
C458        C461   1.450       .  S
C459        N466   1.157       .  T
C460        N465   1.158       .  T
C461        N463   1.158   1_655  T
C462        N464   1.158       .  T
C467        C468   1.456       .  A
C467        C472   1.452       .  A
C468        C469   1.425       .  A
C468        C473   1.449       .  S
C469        C470   1.401       .  A
C469        C476   1.457       .  S
C470        C471   1.401       .  A
C471        C472   1.427       .  A
C471        C474   1.454       .  S
C472        C475   1.448       .  S
C473        N480   1.158       .  T
C474        N479   1.157       .  T
C475        N477   1.157       .  T
C476        N478   1.158       .  T
C481        C482   1.408       .  A
C481        C486   1.414       .  A
C482        C483   1.426       .  A
C482        C487   1.457       .  S
C483        C484   1.455       .  A
C483        C490   1.453       .  S
C484        C485   1.444       .  A
C485        C486   1.429       .  A
C485        C488   1.450       .  S
C486        C489   1.454       .  S
C487        N494   1.158       .  T
C488        N493   1.157       .  T
C489        N491   1.158       .  T
C490        N492   1.158       .  T
C495        C496   1.452       .  A
C495        C500   1.448       .  A
C496        C497   1.426       .  A
C496        C501   1.448       .  S
C497        C498   1.407       .  A
C497        C504   1.456   1_565  S
C498        C499   1.408       .  A
C499        C500   1.422       .  A
C499        C502   1.456       .  S
C500        C503   1.450       .  S
C501        N508   1.158   1_565  T
C502        N507   1.158       .  T
C503        N505   1.157       .  T
C504        N506   1.158       .  T
C509        C510   1.399       .  A
C509        C514   1.403       .  A
C510        C511   1.419       .  A
C510        C515   1.456       .  S
C511        C512   1.453       .  A
C511        C518   1.450       .  S
C512        C513   1.449       .  A
C513        C514   1.427       .  A
C513        C516   1.448       .  S
C514        C517   1.453   1_565  S
C515        N522   1.158       .  T
C516        N521   1.157       .  T
C517        N519   1.157       .  T
C518        N520   1.158       .  T
C523        C524   1.449       .  A
C523        C528   1.447       .  A
C524        C525   1.426       .  A
C524        C529   1.452       .  S
C525        C526   1.415       .  A
C525        C532   1.456       .  S
C526        C527   1.412       .  A
C527        C528   1.427       .  A
C527        C530   1.455       .  S
C528        C531   1.449       .  S
C529        N536   1.158       .  T
C530        N535   1.158       .  T
C531        N533   1.158       .  T
C532        N534   1.158       .  T
C537        C538   1.419       .  A
C537        C542   1.415       .  A
C538        C539   1.433       .  A
C538        C543   1.455       .  S
C539        C540   1.448       .  A
C539        C546   1.450       .  S
C540        C541   1.451       .  A
C541        C542   1.436       .  A
C541        C544   1.449       .  S
C542        C545   1.454       .  S
C543        N550   1.158       .  T
C544        N549   1.158       .  T
C545        N547   1.158       .  T
C546        N548   1.157       .  T
C551        C552   1.403       .  A
C551        C556   1.412       .  A
C552        C553   1.429       .  A
C552        C557   1.455   1_556  S
C553        C554   1.458       .  A
C553        C560   1.449       .  S
C554        C555   1.447       .  A
C555        C556   1.429       .  A
C555        C558   1.450       .  S
C556        C559   1.454       .  S
C557        N564   1.158       .  T
C558        N563   1.157       .  T
C559        N561   1.158       .  T
C560        N562   1.158   1_556  T
C565        C566   1.451       .  A
C565        C570   1.452       .  A
C566        C567   1.431       .  A
C566        C571   1.449       .  S
C567        C568   1.406       .  A
C567        C574   1.453       .  S
C568        C569   1.405       .  A
C569        C570   1.428       .  A
C569        C572   1.455       .  S
C570        C573   1.449       .  S
C571        N578   1.157       .  T
C572        N577   1.157       .  T
C573        N575   1.158       .  T
C574        N576   1.157   1_556  T
C579        C580   1.452       .  A
C579        C584   1.456       .  A
C580        C581   1.432       .  A
C580        C585   1.449       .  S
C581        C582   1.405       .  A
C581        C588   1.453       .  S
C582        C583   1.402       .  A
C583        C584   1.427       .  A
C583        C586   1.456       .  S
C584        C587   1.448       .  S
C585        N592   1.157       .  T
C586        N591   1.157       .  T
C587        N589   1.158       .  T
C588        N590   1.157       .  T
C593        C594   1.404       .  A
C593        C598   1.405       .  A
C594        C595   1.428       .  A
C594        C599   1.455       .  S
C595        C596   1.455       .  A
C595        C602   1.450       .  S
C596        C597   1.451       .  A
C597        C598   1.431       .  A
C597        C600   1.448       .  S
C598        C601   1.453       .  S
C599        N606   1.158       .  T
C600        N605   1.157       .  T
C601        N603   1.157       .  T
C602        N604   1.158       .  T
C607        C608   1.399       .  A
C607        C612   1.400       .  A
C608        C609   1.423       .  A
C608        C613   1.454   1_554  S
C609        C610   1.452       .  A
C609        C616   1.449       .  S
C610        C611   1.454       .  A
C611        C612   1.420       .  A
C611        C614   1.451       .  S
C612        C615   1.456       .  S
C613        N620   1.157   1_545  T
C614        N619   1.158       .  T
C615        N617   1.157       .  T
C616        N618   1.157       .  T
C621        C622   1.453       .  A
C621        C626   1.448       .  A
C622        C623   1.425   1_554  A
C622        C627   1.450   1_554  S
C623        C624   1.407   1_556  A
C623        C630   1.456       .  S
C624        C625   1.409       .  A
C625        C626   1.424       .  A
C625        C628   1.455       .  S
C626        C629   1.451       .  S
C627        N634   1.158       .  T
C628        N633   1.158       .  T
C629        N631   1.157       .  T
C630        N632   1.158       .  T
C635        C636   1.405       .  A
C635        C640   1.405       .  A
C636        C637   1.430       .  A
C636        C641   1.453   1_545  S
C637        C638   1.450       .  A
C637        C644   1.449       .  S
C638        C639   1.454       .  A
C639        C640   1.428       .  A
C639        C642   1.450       .  S
C640        C643   1.455       .  S
C641        N648   1.157       .  T
C642        N647   1.158       .  T
C643        N645   1.157       .  T
C644        N646   1.157       .  T
C649        C650   1.450       .  A
C649        C654   1.451       .  A
C650        C651   1.431       .  A
C650        C655   1.450       .  S
C651        C652   1.414       .  A
C651        C658   1.455       .  S
C652        C653   1.413       .  A
C653        C654   1.433       .  A
C653        C656   1.455       .  S
C654        C657   1.449       .  S
C655        N662   1.157       .  T
C656        N661   1.158       .  T
C657        N659   1.158       .  T
C658        N660   1.158       .  T
C663        C664   1.409       .  A
C663        C668   1.409       .  A
C664        C665   1.425       .  A
C664        C669   1.457   1_455  S
C665        C666   1.451       .  A
C665        C672   1.451       .  S
C666        C667   1.449       .  A
C667        C668   1.423       .  A
C667        C670   1.451       .  S
C668        C671   1.456   1_554  S
C669        N676   1.158       .  T
C670        N675   1.157       .  T
C671        N673   1.158       .  T
C672        N674   1.158   1_455  T
C677        C678   1.400       .  A
C677        C682   1.402       .  A
C678        C679   1.421       .  A
C678        C683   1.457       .  S
C679        C680   1.455       .  A
C679        C686   1.450       .  S
C680        C681   1.449       .  A
C681        C682   1.425       .  A
C681        C684   1.449       .  S
C682        C685   1.453   1_554  S
C683        N690   1.158       .  T
C684        N689   1.157       .  T
C685        N687   1.157       .  T
C686        N688   1.158       .  T
C691        C692   1.411   1_455  A
C691        C696   1.417       .  A
C692        C693   1.431   1_655  A
C692        C697   1.455       .  S
C693        C694   1.452       .  A
C693        C700   1.451   1_455  S
C694        C695   1.446       .  A
C695        C696   1.430       .  A
C695        C698   1.450       .  S
C696        C699   1.455       .  S
C697        N704   1.158       .  T
C698        N703   1.157       .  T
C699        N701   1.158       .  T
C700        N702   1.158       .  T
C705        C706   1.410       .  A
C705        C710   1.416       .  A
C706        C707   1.430       .  A
C706        C711   1.456       .  S
C707        C708   1.454       .  A
C707        C714   1.451       .  S
C708        C709   1.446       .  A
C709        C710   1.430       .  A
C709        C712   1.451       .  S
C710        C713   1.454       .  S
C711        N718   1.158       .  T
C712        N717   1.157       .  T
C713        N715   1.158       .  T
C714        N716   1.158       .  T
C719        C720   1.407       .  A
C719        C724   1.408       .  A
C720        C721   1.423       .  A
C720        C725   1.456       .  S
C721        C722   1.450       .  A
C721        C728   1.450       .  S
C722        C723   1.452       .  A
C723        C724   1.427       .  A
C723        C726   1.449       .  S
C724        C727   1.456   1_545  S
C725        N732   1.158   1_455  T
C726        N731   1.158   1_545  T
C727        N729   1.158       .  T
C728        N730   1.157       .  T
C733        C734   1.450       .  A
C733        C738   1.450       .  A
C734        C735   1.429       .  A
C734        C739   1.449       .  S
C735        C736   1.412       .  A
C735        C742   1.456       .  S
C736        C737   1.410       .  A
C737        C738   1.429       .  A
C737        C740   1.454   1_455  S
C738        C741   1.450       .  S
C739        N746   1.158       .  T
C740        N745   1.158       .  T
C741        N743   1.157       .  T
C742        N744   1.158       .  T
C747        C748   1.412       .  A
C747        C752   1.406   1_545  A
C748        C749   1.432       .  A
C748        C753   1.454       .  S
C749        C750   1.449       .  A
C749        C756   1.450       .  S
C750        C751   1.456       .  A
C751        C752   1.430   1_545  A
C751        C754   1.449   1_545  S
C752        C755   1.455       .  S
C753        N760   1.158       .  T
C754        N759   1.158       .  T
C755        N757   1.157       .  T
C756        N758   1.157       .  T
C761        C762   1.449       .  A
C761        C766   1.445       .  A
C762        C763   1.421       .  A
C762        C767   1.452       .  S
C763        C764   1.409       .  A
C763        C770   1.456   1_565  S
C764        C765   1.415       .  A
C765        C766   1.422       .  A
C765        C768   1.456   1_556  S
C766        C769   1.451       .  S
C767        N774   1.158   1_565  T
C768        N773   1.158       .  T
C769        N771   1.157       .  T
C770        N772   1.158       .  T
C775        C776   1.449       .  A
C775        C780   1.449       .  A
C776        C777   1.424       .  A
C776        C781   1.450       .  S
C777        C778   1.410       .  A
C777        C784   1.456   1_655  S
C778        C779   1.407       .  A
C779        C780   1.421       .  A
C779        C782   1.455       .  S
C780        C783   1.451       .  S
C781        N788   1.158   1_655  T
C782        N787   1.158   1_565  T
C783        N785   1.157       .  T
C784        N786   1.158       .  T
C789        C790   1.449       .  A
C789        C794   1.450       .  A
C790        C791   1.420       .  A
C790        C795   1.451       .  S
C791        C792   1.406       .  A
C791        C798   1.455       .  S
C792        C793   1.407       .  A
C793        C794   1.422       .  A
C793        C796   1.457       .  S
C794        C797   1.450       .  S
C795        N802   1.157       .  T
C796        N801   1.158       .  T
C797        N799   1.158       .  T
C798        N800   1.157       .  T
C803        C804   1.450       .  A
C803        C808   1.453       .  A
C804        C805   1.423       .  A
C804        C809   1.449       .  S
C805        C806   1.400       .  A
C805        C812   1.454   1_556  S
C806        C807   1.398       .  A
C807        C808   1.415       .  A
C807        C810   1.456       .  S
C808        C811   1.451       .  S
C809        N816   1.157       .  T
C810        N815   1.157       .  T
C811        N813   1.158       .  T
C812        N814   1.157   1_655  T
