geometry optimzed in LAMMPS
_audit_creation_date              2020-11-30 
_audit_creation_method            'lammps2cif' 
_symmetry_space_group_name_H-M    'P1' 
_symmetry_Int_Tables_number       1 
_symmetry_cell_setting            triclinic 
loop_ 
_symmetry_equiv_pos_as_xyz 
  x,y,z 
_cell_length_a                    42.59629661 
_cell_length_b                    42.772626245450255 
_cell_length_c                    49.229793632927475 
_cell_angle_alpha                 89.72165310419756 
_cell_angle_beta                  89.850986327185 
_cell_angle_gamma                 120.03068556730119 
loop_ 
_atom_site_label 
_atom_site_type_symbol 
_atom_site_fract_x 
_atom_site_fract_y 
_atom_site_fract_z 
_atom_site_charge 
C1          C  0.33062746  0.16674942  0.27867890     0.45600
H2          H  0.33042381  0.16623333  0.30114537    -0.03400
C3          C  0.33121664  0.17077351  0.22626761     0.45700
H4          H  0.33143646  0.17403826  0.20398139    -0.03400
C5          C  0.30214128  0.13108217  0.26552489    -0.17100
C6          C  0.32242271  0.19580170  0.26778874    -0.16900
C7          C  0.36713571  0.17455735  0.26559424    -0.17200
C8          C  0.30246583  0.13298486  0.23740121    -0.17200
C9          C  0.32369036  0.19826116  0.24010537    -0.16800
C10         C  0.36776049  0.17763733  0.23761317    -0.17100
O11         O  0.14483652  0.11038138  0.02601409    -0.71600
O12         O  0.11905065  0.15674812  0.47156216    -0.71900
O13         O  0.11931317  0.15617968  0.02651575    -0.71700
O14         O  0.14474417  0.11077000  0.47121164    -0.71700
O15         O  0.09032971  0.06443327  0.47268090    -0.71700
O16         O  0.06373787  0.11153144  0.02550905    -0.71700
O17         O  0.06448174  0.11035271  0.47112101    -0.71600
O18         O  0.08934703  0.06595444  0.02741744    -0.71800
V19         V  0.13096144  0.13264913  0.49880458     1.35200
V20         V  0.07807213  0.08893814  0.49912152     1.35200
C21         C  0.12121324  0.08081877  0.03663529     0.77600
C22         C  0.08732058  0.14117095  0.46199368     0.77700
C23         C  0.08710442  0.14142896  0.03535051     0.77500
C24         C  0.12181947  0.07991682  0.46236691     0.77500
O25         O  0.41029308  0.46341295  0.02765558    -0.71600
O26         O  0.44787735  0.03419731  0.47161993    -0.71900
O27         O  0.44902732  0.03526946  0.02639969    -0.71700
O28         O  0.40931072  0.46212911  0.47289111    -0.71700
O29         O  0.35907490  0.46365829  0.47369481    -0.71700
O30         O  0.39957545  0.03808363  0.02647946    -0.71700
O31         O  0.39792012  0.03597684  0.47180369    -0.71600
O32         O  0.36057912  0.46591656  0.02808322    -0.71800
V33         V  0.42815291  0.49877697  0.99962527     1.35200
V34         V  0.38027582  0.50091571  0.49998912     1.35200
C35         C  0.37917459  0.45297876  0.03758720     0.77600
C36         C  0.42910911  0.04685035  0.46183184     0.77700
C37         C  0.43085650  0.04863639  0.03603915     0.77500
C38         C  0.37762952  0.45070942  0.46401314     0.77500
O39         O  0.46141192  0.38743211  0.47105951    -0.71600
O40         O  0.03365717  0.42545111  0.02528861    -0.71900
O41         O  0.03404361  0.42180958  0.47096833    -0.71700
O42         O  0.46074795  0.39028587  0.02545810    -0.71700
O43         O  0.45925875  0.33877796  0.02790594    -0.71700
O44         O  0.03332201  0.37072352  0.47393561    -0.71700
O45         O  0.03208851  0.37401876  0.02868629    -0.71600
O46         O  0.45992512  0.33595305  0.47309451    -0.71800
V47         V  0.49741111  0.40517520  0.49827822     1.35200
V48         V  0.49612877  0.35579601  0.00084063     1.35200
C49         C  0.44878684  0.35565600  0.46241991     0.77600
C50         C  0.04543802  0.40654510  0.03609930     0.77700
C51         C  0.04624801  0.40172567  0.46328431     0.77500
C52         C  0.44768035  0.35916868  0.03596158     0.77500
C53         C  0.47864928  0.18786935  0.16071171     0.02400
C54         C  0.01684206  0.21275332  0.15916300     0.02400
C55         C  0.03777137  0.20949071  0.13846854    -0.18100
C56         C  0.02271181  0.18146877  0.11988832     0.02400
C57         C  0.48551947  0.15584958  0.12142298     0.02400
C58         C  0.46451447  0.15842270  0.14232657    -0.18100
H59         H  0.43664047  0.13692410  0.14405007     0.04400
H60         H  0.06674429  0.22834090  0.13749642     0.04400
C61         C  0.30072193  0.32215177  0.16748690     0.02400
C62         C  0.31386424  0.29756970  0.16596893     0.02400
C63         C  0.33464869  0.29898155  0.14319830    -0.18100
C64         C  0.34499660  0.32578612  0.12323395     0.02400
C65         C  0.33240585  0.35058022  0.12528276     0.02400
C66         C  0.30988793  0.34803781  0.14685165    -0.18100
H67         H  0.29965408  0.36670084  0.14773504     0.04400
H68         H  0.34415197  0.27980667  0.14166353     0.04400
C69         C  0.01868717  0.20823287  0.33589249     0.02400
C70         C  0.48059214  0.18450440  0.33546964     0.02400
C71         C  0.46415925  0.15898792  0.35646470    -0.18100
C72         C  0.48436386  0.15761078  0.37833445     0.02400
C73         C  0.02153424  0.18391609  0.38018525     0.02400
C74         C  0.03764003  0.20975595  0.35969233    -0.18100
H75         H  0.06637826  0.22915397  0.36114641     0.04400
H76         H  0.43537623  0.13954050  0.35550233     0.04400
C77         C  0.28579847  0.31018418  0.34178535     0.02400
C78         C  0.30054036  0.28648067  0.34246976     0.02400
C79         C  0.32411547  0.28922807  0.36360503    -0.18100
C80         C  0.33563981  0.31611999  0.38318519     0.02400
C81         C  0.32334657  0.34103307  0.38169475     0.02400
C82         C  0.30045103  0.33893165  0.36060712    -0.18100
H83         H  0.29399990  0.36032418  0.35914481     0.04400
H84         H  0.33597212  0.27190751  0.36355214     0.04400
C85         C  0.19929079  0.01837621  0.33771125     0.02400
C86         C  0.18527148  0.48049889  0.33788917     0.02400
C87         C  0.16362676  0.45994605  0.35995139    -0.18100
C88         C  0.15348068  0.47546697  0.38054376     0.02400
C89         C  0.16712910  0.01306521  0.38041394     0.02400
C90         C  0.19042746  0.03417733  0.35925801    -0.18100
H91         H  0.20097772  0.06310671  0.35915384     0.04400
H92         H  0.15228876  0.43087868  0.36007324     0.04400
C93         C  0.20239676  0.02273606  0.16048227     0.02400
C94         C  0.19221517  0.48541567  0.15802403     0.02400
C95         C  0.17073974  0.46503791  0.13592757    -0.18100
C96         C  0.15577714  0.47899360  0.11754419     0.02400
C97         C  0.16362273  0.01492147  0.12102672     0.02400
C98         C  0.18430609  0.03495830  0.14315776    -0.18100
H99         H  0.18693830  0.06115809  0.14620747     0.04400
H100        H  0.16412488  0.43719508  0.13389013     0.04400
C101        C  0.16559687  0.33702208  0.22150606     0.45600
H102        H  0.16698892  0.33754257  0.19899674    -0.03400
C103        C  0.16059612  0.33563489  0.27398782     0.45700
H104        H  0.15669347  0.33493048  0.29625698    -0.03400
C105        C  0.12758102  0.30898915  0.23252198    -0.17100
C106        C  0.19227239  0.32736933  0.23562327    -0.16900
C107        C  0.17433403  0.37370681  0.23352798    -0.17200
C108        C  0.12516777  0.30863841  0.26022005    -0.17200
C109        C  0.18934243  0.32591797  0.26382491    -0.16800
C110        C  0.17103668  0.37266455  0.26133064    -0.17100
C111        C  0.16160099  0.42212855  0.21820139    -0.20200
C112        C  0.18326530  0.40607960  0.21608119    -0.06700
C113        C  0.21197954  0.42042157  0.19674960     0.14100
C114        C  0.21620371  0.44819485  0.17890285    -0.20200
C115        C  0.19329285  0.46287599  0.18057046    -0.06700
C116        C  0.16651270  0.45050793  0.20113070     0.14100
C117        C  0.14217312  0.46645778  0.20452549    -0.23600
H118        H  0.13969541  0.41174892  0.23257930     0.15400
H119        H  0.23673786  0.45778946  0.16307702     0.15400
C120        C  0.23859295  0.40710598  0.19495683    -0.23500
H121        H  0.12242757  0.45336615  0.22142835     0.05700
H122        H  0.12668331  0.46301981  0.18562207     0.08900
H123        H  0.15880204  0.49566199  0.20915148     0.08900
H124        H  0.22509759  0.37917589  0.18718684     0.08900
H125        H  0.25030924  0.40823839  0.21529282     0.08900
H126        H  0.26130768  0.42390924  0.18080762     0.05600
C127        C  0.21064111  0.42913709  0.28708882    -0.20200
C128        C  0.17581585  0.40356431  0.27823602    -0.06700
C129        C  0.14579139  0.40627403  0.28732756     0.14100
C130        C  0.15149352  0.43571571  0.30308162    -0.20200
C131        C  0.18562488  0.45948411  0.31397294    -0.06700
C132        C  0.21562858  0.45571641  0.30618803     0.14100
C133        C  0.25221244  0.47671590  0.31922198    -0.23600
H134        H  0.23358849  0.42639026  0.28090607     0.15400
H135        H  0.12830074  0.43784750  0.30962620     0.15400
C136        C  0.10742129  0.37690081  0.28255933    -0.23500
H137        H  0.26090599  0.45778122  0.32689123     0.05700
H138        H  0.25179771  0.49229925  0.33690155     0.08900
H139        H  0.27234822  0.99525935  0.30404458     0.08900
H140        H  0.10317915  0.35163077  0.29223650     0.08900
H141        H  0.10178269  0.37272436  0.26065770     0.08900
H142        H  0.08737095  0.38328458  0.29158311     0.05600
C143        C  0.25034037  0.29241923  0.29639358    -0.20200
C144        C  0.25644734  0.30772460  0.32258695    -0.06700
C145        C  0.23383458  0.32201220  0.33021997     0.14100
C146        C  0.21635049  0.33101812  0.31017044    -0.20200
C147        C  0.21092315  0.31673560  0.28380379    -0.06700
C148        C  0.22436163  0.29273427  0.27871742     0.14100
C149        C  0.20929747  0.26405893  0.25718584    -0.23600
H150        H  0.26379303  0.27832864  0.28957357     0.15400
H151        H  0.20531689  0.34779734  0.31623408     0.15400
C152        C  0.22411881  0.32473008  0.35933231    -0.23500
H153        H  0.19973910  0.23724375  0.26684054     0.05700
H154        H  0.23068005  0.26873654  0.24211921     0.08900
H155        H  0.18546987  0.26239569  0.24692275     0.08900
H156        H  0.23504745  0.35344606  0.36492211     0.08900
H157        H  0.23363023  0.31143883  0.37387646     0.08900
H158        H  0.19412677  0.31042455  0.36155019     0.05600
C159        C  0.03365462  0.25163557  0.29633000    -0.20200
C160        C  0.04129245  0.22859556  0.31182894    -0.06700
C161        C  0.07422960  0.22887593  0.30662976     0.14100
C162        C  0.10144983  0.25708650  0.29158144    -0.20200
C163        C  0.09441091  0.28068160  0.27658687    -0.06700
C164        C  0.05913979  0.27625396  0.27753164     0.14100
C165        C  0.04751198  0.29700831  0.25951991    -0.23600
H166        H  0.00841311  0.25140066  0.29921696     0.15400
H167        H  0.12778702  0.25905029  0.28998431     0.15400
C168        C  0.08129177  0.19931539  0.31603159    -0.23500
H169        H  0.03708007  0.31146162  0.27196929     0.05700
H170        H  0.02591080  0.27791231  0.24586725     0.08900
H171        H  0.06962059  0.31679728  0.24642445     0.08900
H172        H  0.05684284  0.17589211  0.32492596     0.08900
H173        H  0.10359314  0.21015418  0.33108665     0.08900
H174        H  0.08945477  0.18891720  0.29834544     0.05600
C175        C  0.23761790  0.30131360  0.17987065    -0.20200
C176        C  0.27386001  0.31963958  0.18779157    -0.06700
C177        C  0.28371255  0.34084726  0.21146935     0.14100
C178        C  0.25673071  0.34288895  0.22674591    -0.20200
C179        C  0.21988851  0.32334065  0.21927177    -0.06700
C180        C  0.21049064  0.30160882  0.19559093     0.14100
C181        C  0.17236108  0.27715086  0.18626120    -0.23600
H182        H  0.23030322  0.28675456  0.16083398     0.15400
H183        H  0.26448460  0.36016208  0.24439790     0.15400
C184        C  0.32273471  0.36211299  0.22002626    -0.23500
H185        H  0.16764315  0.24935425  0.18355064     0.05700
H186        H  0.16769256  0.28705681  0.16664826     0.08900
H187        H  0.15249789  0.27515211  0.20115495     0.08900
H188        H  0.33912004  0.38171815  0.20380463     0.08900
H189        H  0.33333556  0.34346114  0.22369431     0.08900
H190        H  0.32589845  0.37734043  0.23900064     0.05600
C191        C  0.05272733  0.22311908  0.20004604    -0.20200
C192        C  0.03899133  0.23741693  0.18094537    -0.06700
C193        C  0.05404203  0.27514204  0.17891055     0.14100
C194        C  0.08289841  0.29780535  0.19601961    -0.20200
C195        C  0.09729856  0.28348425  0.21475358    -0.06700
C196        C  0.08226435  0.24545953  0.21632329     0.14100
C197        C  0.09842843  0.22723074  0.23273154    -0.23600
H198        H  0.04216104  0.19416705  0.20061245     0.15400
H199        H  0.09445694  0.32683620  0.19469279     0.15400
C200        C  0.03999860  0.29123902  0.15837420    -0.23500
H201        H  0.10523941  0.21083583  0.21909497     0.05700
H202        H  0.07843231  0.20893724  0.24806823     0.08900
H203        H  0.12381835  0.24665409  0.24290226     0.08900
H204        H  0.01069328  0.28087598  0.16214280     0.08900
H205        H  0.04368865  0.28369784  0.13755450     0.08900
H206        H  0.05447480  0.32117974  0.15955508     0.05600
C207        C  0.38811269  0.31099328  0.44426908    -0.20200
C208        C  0.42177180  0.34259366  0.44026278    -0.06700
C209        C  0.42782609  0.36283079  0.41597739     0.14100
C210        C  0.39988285  0.35170509  0.39701759    -0.20200
C211        C  0.36537766  0.32206718  0.40206664    -0.06700
C212        C  0.35967887  0.30065084  0.42548967     0.14100
C213        C  0.32352458  0.26747312  0.43089979    -0.23600
H214        H  0.38351634  0.29531568  0.46271458     0.15400
H215        H  0.40466042  0.36724428  0.37846167     0.15400
C216        C  0.46318284  0.39644761  0.40917371    -0.23500
H217        H  0.32341364  0.25415216  0.45034949     0.05700
H218        H  0.31712289  0.24777900  0.41427283     0.08900
H219        H  0.30201826  0.27480750  0.43199282     0.08900
H220        H  0.48419519  0.40353515  0.42478439     0.08900
H221        H  0.45852807  0.41964346  0.40681641     0.08900
H222        H  0.47400054  0.39252471  0.38972870     0.05600
C223        C  0.13697505  0.44795781  0.42671348    -0.20200
C224        C  0.12595556  0.45146397  0.40065160    -0.06700
C225        C  0.08872258  0.43282998  0.39418835     0.14100
C226        C  0.06319942  0.41532700  0.41499685    -0.20200
C227        C  0.07408252  0.41429903  0.44166627    -0.06700
C228        C  0.11136848  0.42834397  0.44710598     0.14100
C229        C  0.12510879  0.42277039  0.47376723    -0.23600
H230        H  0.16567506  0.46069208  0.43117657     0.15400
H231        H  0.03464177  0.40250633  0.41043498     0.15400
C232        C  0.07589839  0.43157599  0.36547424    -0.23500
H233        H  0.13951031  0.40752891  0.47022132     0.05700
H234        H  0.10302738  0.40717503  0.48862714     0.08900
H235        H  0.14470671  0.44930277  0.48258862     0.08900
H236        H  0.08626449  0.41769973  0.35231282     0.08900
H237        H  0.08585942  0.45924114  0.35744876     0.08900
H238        H  0.04583599  0.41651986  0.36422102     0.05600
C239        C  0.13603164  0.46781198  0.06917548    -0.20200
C240        C  0.12965589  0.45541032  0.09618882    -0.06700
C241        C  0.09589386  0.42431503  0.10277625     0.14100
C242        C  0.06972535  0.40731416  0.08228566    -0.20200
C243        C  0.07491590  0.42279057  0.05630081    -0.06700
C244        C  0.10794787  0.45445521  0.05016346     0.14100
C245        C  0.11268778  0.47626514  0.02477050    -0.23600
H246        H  0.16204255  0.99060463  0.06367539     0.15400
H247        H  0.04406832  0.38336606  0.08708485     0.15400
C248        C  0.08620505  0.41013548  0.13148743    -0.23500
H249        H  0.14117281  0.99832864  0.02192716     0.05700
H250        H  0.09532430  0.48874494  0.02624869     0.08900
H251        H  0.10433169  0.95892474  0.00666175     0.08900
H252        H  0.08904017  0.43196436  0.14513754     0.08900
H253        H  0.10388347  0.39964506  0.13853634     0.08900
H254        H  0.05776862  0.38756247  0.13309995     0.05600
C255        C  0.35909596  0.32685854  0.07389744    -0.20200
C256        C  0.37035290  0.32901332  0.10099459    -0.06700
C257        C  0.40668539  0.33830513  0.10631217     0.14100
C258        C  0.43108602  0.34707738  0.08450247    -0.20200
C259        C  0.42023018  0.34724740  0.05770173    -0.06700
C260        C  0.38380275  0.33663756  0.05221747     0.14100
C261        C  0.37115656  0.33596851  0.02355946    -0.23600
H262        H  0.33109173  0.31879994  0.06977739     0.15400
H263        H  0.45910490  0.35487742  0.08840900     0.15400
C264        C  0.42035517  0.34026057  0.13485019    -0.23500
H265        H  0.34176342  0.32692753  0.02284435     0.05700
H266        H  0.37600308  0.31715633  0.01116853     0.08900
H267        H  0.38626537  0.36345701  0.01446733     0.08900
H268        H  0.40666255  0.31305499  0.14437638     0.08900
H269        H  0.41523803  0.35879531  0.14729138     0.08900
H270        H  0.44996678  0.35029367  0.13513593     0.05600
C271        C  0.43467010  0.10174602  0.05914364    -0.20200
C272        C  0.44534589  0.07563578  0.05818026    -0.06700
C273        C  0.46827431  0.07517385  0.07884270     0.14100
C274        C  0.47888400  0.10012418  0.10016602    -0.20200
C275        C  0.46852428  0.12650140  0.10089256    -0.06700
C276        C  0.44648591  0.12752334  0.07985854     0.14100
C277        C  0.43583763  0.15610010  0.07871727    -0.23600
H278        H  0.41737821  0.10236713  0.04328222     0.15400
H279        H  0.99641025  0.09987408  0.11597512     0.15400
C280        C  0.48150430  0.04843098  0.07884873    -0.23500
H281        H  0.42203585  0.15524909  0.05939361     0.05700
H282        H  0.46008865  0.18339252  0.08051159     0.08900
H283        H  0.41651443  0.15117334  0.09535803     0.08900
H284        H  0.49892567  0.05296141  0.06076204     0.08900
H285        H  0.45804636  0.02052753  0.07869807     0.08900
H286        H  0.99797618  0.05120656  0.09709237     0.05600
C287        C  0.42588523  0.09452851  0.43527027    -0.20200
C288        C  0.44278807  0.07382546  0.43938436    -0.06700
C289        C  0.47157818  0.07926452  0.42183655     0.14100
C290        C  0.48191028  0.10456624  0.40070172    -0.20200
C291        C  0.46711520  0.12724376  0.39812765    -0.06700
C292        C  0.43815290  0.12170883  0.41537544     0.14100
C293        C  0.92043471  0.14465850  0.41436012    -0.23600
H294        H  0.40378691  0.09062932  0.44848511     0.15400
H295        H  0.50297954  0.10784832  0.38665585     0.15400
C296        C  0.49224611  0.05938590  0.42515413    -0.23500
H297        H  0.92205824  0.15654952  0.43467286     0.05700
H298        H  0.89144653  0.12758308  0.40885422     0.08900
H299        H  0.93338658  0.16735727  0.39970299     0.08900
H300        H  0.47368770  0.02999210  0.42369609     0.08900
H301        H  0.50595716  0.06577388  0.44510997     0.08900
H302        H  0.51355159  0.06716871  0.40930603     0.05600
C303        C  0.36621807  0.40283142  0.39712832    -0.20200
C304        C  0.33459669  0.36988411  0.40212241    -0.06700
C305        C  0.31575514  0.36426650  0.42699956     0.14100
C306        C  0.33007904  0.39134590  0.44679100    -0.20200
C307        C  0.36296950  0.42343430  0.44239302    -0.06700
C308        C  0.38106688  0.42936393  0.41718381     0.14100
C309        C  0.41578941  0.46381679  0.41121634    -0.23600
H310        H  0.37999684  0.40725520  0.37775095     0.15400
H311        H  0.31588776  0.38705887  0.46598182     0.15400
C312        C  0.28057994  0.33022805  0.43325638    -0.23500
H313        H  0.42559932  0.46452590  0.39017055     0.05700
H314        H  0.43716161  0.46629802  0.42533907     0.08900
H315        H  0.41137286  0.48712922  0.41366963     0.08900
H316        H  0.28385147  0.31707243  0.45167720     0.08900
H317        H  0.25906844  0.33709776  0.43720436     0.08900
H318        H  0.27131874  0.31051060  0.41643384     0.05600
C319        C  0.31881410  0.37442166  0.08398483    -0.20200
C320        C  0.34302123  0.37968536  0.10503396    -0.06700
C321        C  0.37823784  0.41011455  0.10459095     0.14100
C322        C  0.38931073  0.43323035  0.08205678    -0.20200
C323        C  0.36560064  0.42741411  0.06051497    -0.06700
C324        C  0.32973858  0.39791820  0.06155639     0.14100
C325        C  0.30367537  0.38989751  0.03846741    -0.23600
H326        H  0.29189183  0.35082251  0.08451886     0.15400
H327        H  0.41659521  0.45620582  0.08144980     0.15400
C328        C  0.40464567  0.41897206  0.12753406    -0.23500
H329        H  0.27758427  0.36452903  0.04205389     0.05700
H330        H  0.31572206  0.38682716  0.01934121     0.08900
H331        H  0.29756704  0.41211001  0.03610064     0.10300
H332        H  0.42887528  0.41817070  0.12013426     0.08900
H333        H  0.39276196  0.40015206  0.14501261     0.08900
H334        H  0.41330871  0.44654302  0.13504871     0.05600
C335        C  0.08518954  0.15574476  0.08382043    -0.20200
C336        C  0.07649679  0.15824695  0.05675148    -0.06700
C337        C  0.05445828  0.17327376  0.05078495     0.14100
C338        C  0.04005069  0.18391251  0.07191716    -0.20200
C339        C  0.04611778  0.17862413  0.09897790    -0.06700
C340        C  0.07001070  0.16565095  0.10517267     0.14100
C341        C  0.57788724  0.16044593  0.13414213    -0.23600
H342        H  0.10222039  0.14421208  0.08827705     0.15400
H343        H  0.02210202  0.19433063  0.06737815     0.15400
C344        C  0.04557838  0.17749253  0.02210703    -0.23500
H345        H  0.59628315  0.14909032  0.13526240     0.05700
H346        H  0.55227549  0.14159844  0.14488287     0.08900
H347        H  0.59117149  0.18678539  0.14475548     0.08900
H348        H  0.03092048  0.15055933  0.01239327     0.08900
H349        H  0.07130316  0.19531735  0.01111226     0.08900
H350        H  0.02811279  0.18990444  0.02089528     0.05600
C351        C  0.05569048  0.17379444  0.44831542    -0.20200
C352        C  0.07658959  0.15831918  0.44080660    -0.06700
C353        C  0.08418551  0.15683616  0.41312894     0.14100
C354        C  0.06835770  0.16852857  0.39352367    -0.20200
C355        C  0.04506820  0.18142370  0.40119301    -0.06700
C356        C  0.04064985  0.18634247  0.42888445     0.14100
C357        C  0.02036793  0.20496785  0.43791069    -0.23600
H358        H  0.05027875  0.17529023  0.46937351     0.15400
H359        H  0.07199195  0.16511721  0.37218404     0.15400
C360        C  0.10731352  0.14121289  0.40430614    -0.23500
H361        H  0.01994421  0.20692766  0.46038796     0.05700
H362        H  0.49201319  0.19018279  0.43087242     0.08900
H363        H  0.03374596  0.23274378  0.42929695     0.08900
H364        H  0.09483737  0.11279754  0.41134593     0.08900
H365        H  0.13478396  0.15706277  0.41320743     0.08900
H366        H  0.11020947  0.14168848  0.38185580     0.05600
C367        C  0.12080624  0.02548586  0.40054131    -0.20200
C368        C  0.15589624  0.03044526  0.40146652    -0.06700
C369        C  0.17954638  0.05166253  0.42227882     0.14100
C370        C  0.16753024  0.06745617  0.44164363    -0.20200
C371        C  0.13225432  0.06240923  0.44091218    -0.06700
C372        C  0.10859308  0.04120348  0.41977807     0.14100
C373        C  0.07093315  0.03543973  0.41574356    -0.23600
H374        H  0.10290310  0.00976695  0.38426574     0.15400
H375        H  0.18572386  0.08351048  0.45773040     0.15400
C376        C  0.21723825  0.05711889  0.42433092    -0.23500
H377        H  0.06871070  0.04406639  0.39485959     0.05700
H378        H  0.06366919  0.05093102  0.42971939     0.08900
H379        H  0.05071296  0.00629703  0.41818206     0.08900
H380        H  0.23310697  0.07105296  0.40581402     0.08900
H381        H  0.21575082  0.03055460  0.42644758     0.08900
H382        H  0.23194701  0.07379396  0.44216354     0.05600
C383        C  0.11781879  0.02735888  0.10012576    -0.20200
C384        C  0.15337684  0.03359851  0.10044359    -0.06700
C385        C  0.17827963  0.05585531  0.08013834     0.14100
C386        C  0.16694629  0.07123059  0.06008402    -0.20200
C387        C  0.13110927  0.06423607  0.05911179    -0.06700
C388        C  0.10623365  0.04228363  0.07965298     0.14100
C389        C  0.06780242  0.03510129  0.08062507    -0.23600
H390        H  0.09893008  0.01018211  0.11570751     0.15400
H391        H  0.18609593  0.08781438  0.04440722     0.15400
C392        C  0.21629684  0.06204341  0.07780333    -0.23500
H393        H  0.05306695  0.01924419  0.09896234     0.05700
H394        H  0.05264708  0.01930930  0.06262117     0.08900
H395        H  0.06782598  0.06107501  0.08112960     0.08900
H396        H  0.22218398  0.04641833  0.09289068     0.08900
H397        H  0.23613331  0.09121188  0.08030263     0.08900
H398        H  0.22022957  0.05354160  0.05739143     0.05600
C399        C  0.28577860  0.21804264  0.21493569    -0.20200
C400        C  0.32011057  0.22584738  0.22407622    -0.06700
C401        C  0.35104082  0.25812426  0.21541909     0.14100
C402        C  0.34662229  0.28303373  0.19981827    -0.20200
C403        C  0.31279423  0.27439833  0.18899121    -0.06700
C404        C  0.28199429  0.24092163  0.19617424     0.14100
C405        C  0.24579040  0.22693805  0.18274171    -0.23600
H406        H  0.26225049  0.19248995  0.22061319     0.15400
H407        H  0.37045511  0.30794295  0.19342678     0.15400
C408        C  0.38894664  0.26500586  0.22000838    -0.23500
H409        H  0.23673493  0.19968156  0.17435264     0.05700
H410        H  0.24695974  0.24411854  0.16550768     0.08900
H411        H  0.22549123  0.22499608  0.19786173     0.08900
H412        H  0.39262836  0.24478674  0.20863474     0.08900
H413        H  0.39406631  0.26314715  0.24174054     0.08900
H414        H  0.40984194  0.29213494  0.21255640     0.05600
C415        C  0.33658624  0.25631306  0.28481508    -0.20200
C416        C  0.31375487  0.21876247  0.28565110    -0.06700
C417        C  0.28284260  0.20409532  0.30290166     0.14100
C418        C  0.27695547  0.22714158  0.31985376    -0.20200
C419        C  0.30070458  0.26454483  0.31945002    -0.06700
C420        C  0.33026862  0.27934835  0.30103995     0.14100
C421        C  0.35669004  0.31935881  0.29875496    -0.23600
H422        H  0.36023268  0.26807146  0.27198097     0.15400
H423        H  0.25465320  0.21585789  0.33429406     0.15400
C424        C  0.25601362  0.16430369  0.30367431    -0.23500
H425        H  0.38422031  0.32494847  0.30446110     0.05700
H426        H  0.34946306  0.33581972  0.31185174     0.08900
H427        H  0.35741124  0.32832543  0.27743502     0.08900
H428        H  0.26903797  0.14962333  0.31217665     0.08900
H429        H  0.24598122  0.15469062  0.28286107     0.08900
H430        H  0.23223155  0.15793190  0.31675342     0.05600
C431        C  0.40957308  0.20134836  0.30401793    -0.20200
C432        C  0.39714680  0.17662559  0.28253763    -0.06700
C433        C  0.41395792  0.15560188  0.27774835     0.14100
C434        C  0.44351193  0.16110097  0.29381040    -0.20200
C435        C  0.45587796  0.18597184  0.31509474    -0.06700
C436        C  0.43855601  0.20616368  0.32037253     0.14100
C437        C  0.45020597  0.23229151  0.34370000    -0.23600
H438        H  0.39670152  0.21729296  0.30782589     0.15400
H439        H  0.45574543  0.14444229  0.29067677     0.15400
C440        C  0.40052936  0.12580981  0.25708224    -0.23500
H441        H  0.43402212  0.24608810  0.34482754     0.05700
H442        H  0.47916311  0.25326262  0.34125020     0.08900
H443        H  0.44664159  0.21768565  0.36318105     0.08900
H444        H  0.42176066  0.13258707  0.24136046     0.08900
H445        H  0.37525336  0.12076082  0.24702099     0.08900
H446        H  0.39462127  0.10019475  0.26726616     0.05600
C447        C  0.38892864  0.16757304  0.19298030    -0.20200
C448        C  0.39833140  0.18409233  0.21851179    -0.06700
C449        C  0.43581875  0.20762999  0.22344224     0.14100
C450        C  0.46179062  0.20702854  0.20588681    -0.20200
C451        C  0.45209225  0.19070404  0.18002601    -0.06700
C452        C  0.41503982  0.17577709  0.17283458     0.14100
C453        C  0.40238818  0.17306801  0.14399077    -0.23600
H454        H  0.36084338  0.15031902  0.18746967     0.15400
H455        H  0.48937560  0.22098241  0.21261189     0.15400
C456        C  0.44973214  0.23618738  0.24496531    -0.23500
H457        H  0.38550670  0.18607560  0.14214884     0.05700
H458        H  0.38562072  0.14432035  0.13807270     0.08900
H459        H  0.42554944  0.18816653  0.12990214     0.08900
H460        H  0.46683892  0.26298622  0.23522428     0.08900
H461        H  0.42785983  0.23793792  0.25560830     0.08900
H462        H  0.46617832  0.23109031  0.25984445     0.05600
C463        C  0.23854115  0.08287945  0.27732080    -0.20200
C464        C  0.27596014  0.09947399  0.28264050    -0.06700
C465        C  0.28754021  0.08636232  0.30479729     0.14100
C466        C  0.26163111  0.05936556  0.32178732    -0.20200
C467        C  0.22451557  0.04292190  0.31648740    -0.06700
C468        C  0.21276268  0.05452306  0.29373827     0.14100
C469        C  0.17329266  0.03827404  0.28668560    -0.23600
H470        H  0.22922608  0.09256991  0.26054448     0.15400
H471        H  0.27051918  0.05160728  0.33990212     0.15400
C472        C  0.32688341  0.09886573  0.31032634    -0.23500
H473        H  0.16554986  0.05948556  0.28740863     0.05700
H474        H  0.15520976  0.01610283  0.30071397     0.08900
H475        H  0.16873772  0.52709536  0.26582602     0.08900
H476        H  0.34107796  0.12638039  0.31879662     0.08900
H477        H  0.34039133  0.09769773  0.29149078     0.08900
H478        H  0.32989154  0.08122450  0.32548097     0.05600
C479        C  0.24214888  0.04036159  0.20374058    -0.20200
C480        C  0.23119888  0.05029498  0.17963987    -0.06700
C481        C  0.24907976  0.08820025  0.17390265     0.14100
C482        C  0.26725538  0.11309443  0.19453879    -0.20200
C483        C  0.27819193  0.10319942  0.21829308    -0.06700
C484        C  0.26820062  0.06630535  0.22128167     0.14100
C485        C  0.28656332  0.05331186  0.24067834    -0.23600
H486        H  0.23275587  0.01271244  0.20885514     0.15400
H487        H  0.27561541  0.14112754  0.19063863     0.15400
C488        C  0.25496820  0.10415038  0.14566271    -0.23500
H489        H  0.29660478  0.03763073  0.22934497     0.05700
H490        H  0.26703338  0.03545554  0.25644885     0.08900
H491        H  0.31059672  0.07582952  0.25024071     0.08900
H492        H  0.23922040  0.11818942  0.14282099     0.08900
H493        H  0.24839064  0.08364501  0.12983573     0.08900
H494        H  0.28417926  0.12418396  0.14260500     0.05600
C495        C  0.33062752  0.16674938  0.77867867     0.45600
H496        H  0.33042393  0.16623334  0.80114515    -0.03400
C497        C  0.33121661  0.17077341  0.72626740     0.45700
H498        H  0.33143641  0.17403813  0.70398118    -0.03400
C499        C  0.30214133  0.13108210  0.76552471    -0.17100
C500        C  0.32242272  0.19580163  0.76778852    -0.16900
C501        C  0.36713573  0.17455731  0.76559400    -0.17200
C502        C  0.30246584  0.13298474  0.73740103    -0.17200
C503        C  0.32369032  0.19826106  0.74010514    -0.16800
C504        C  0.36776049  0.17763729  0.73761293    -0.17100
O505        O  0.14483610  0.11038100  0.52601421    -0.71600
O506        O  0.11905054  0.15674804  0.97156199    -0.71900
O507        O  0.11931330  0.15617970  0.52651587    -0.71700
O508        O  0.14474458  0.11077033  0.97121152    -0.71700
O509        O  0.09033029  0.06443332  0.97268085    -0.71700
O510        O  0.06373786  0.11153171  0.52550923    -0.71700
O511        O  0.06448181  0.11035235  0.97112085    -0.71600
O512        O  0.08934650  0.06595428  0.52741753    -0.71800
V513        V  0.13096160  0.13264929  0.99880445     1.35200
V514        V  0.07807243  0.08893805  0.99912140     1.35200
C515        C  0.12121269  0.08081845  0.53663541     0.77600
C516        C  0.08732047  0.14117065  0.96199351     0.77700
C517        C  0.08710459  0.14142917  0.53535066     0.77500
C518        C  0.12182004  0.07991705  0.96236684     0.77500
O519        O  0.41029288  0.46341281  0.52765543    -0.71600
O520        O  0.44787795  0.03419745  0.97161998    -0.71900
O521        O  0.44902669  0.03526955  0.52639960    -0.71700
O522        O  0.40931075  0.46212904  0.97289123    -0.71700
O523        O  0.35907488  0.46365814  0.97369498    -0.71700
O524        O  0.39957489  0.03808383  0.52647939    -0.71700
O525        O  0.39792056  0.03597665  0.97180377    -0.71600
O526        O  0.36057897  0.46591651  0.52808304    -0.71800
V527        V  0.42815285  0.49877693  0.49962521     1.35200
V528        V  0.38027584  0.50091566  0.99998922     1.35200
C529        C  0.37917437  0.45297863  0.53758701     0.77600
C530        C  0.42910955  0.04685031  0.96183189     0.77700
C531        C  0.43085595  0.04863658  0.53603904     0.77500
C532        C  0.37762952  0.45070928  0.96401330     0.77500
O533        O  0.46141216  0.38743208  0.97105955    -0.71600
O534        O  0.03365697  0.42545057  0.52528858    -0.71900
O535        O  0.03404404  0.42181024  0.97096837    -0.71700
O536        O  0.46074786  0.39028583  0.52545806    -0.71700
O537        O  0.45925840  0.33877779  0.52790572    -0.71700
O538        O  0.03332219  0.37072404  0.97393538    -0.71700
O539        O  0.03208788  0.37401803  0.52868654    -0.71600
O540        O  0.45992540  0.33595304  0.97309472    -0.71800
V541        V  0.49741126  0.40517529  0.99827831     1.35200
V542        V  0.49612846  0.35579585  0.50084045     1.35200
C543        C  0.44878714  0.35565595  0.96242003     0.77600
C544        C  0.04543757  0.40654444  0.53609944     0.77700
C545        C  0.04624831  0.40172628  0.96328421     0.77500
C546        C  0.44768012  0.35916856  0.53596143     0.77500
C547        C  0.47864939  0.18786953  0.66071157     0.02400
C548        C  0.01684266  0.21275389  0.65916306     0.02400
C549        C  0.03777203  0.20949144  0.63846856    -0.18100
C550        C  0.02271250  0.18146956  0.61988828     0.02400
C551        C  0.48551961  0.15585002  0.62142270     0.02400
C552        C  0.46451462  0.15842298  0.64232634    -0.18100
H553        H  0.43664064  0.13692432  0.64404981     0.04400
H554        H  0.06674493  0.22834162  0.63749649     0.04400
C555        C  0.30072212  0.32215197  0.66748690     0.02400
C556        C  0.31386414  0.29756967  0.66596878     0.02400
C557        C  0.33464833  0.29898135  0.64319806    -0.18100
C558        C  0.34499626  0.32578589  0.62323370     0.02400
C559        C  0.33240569  0.35058012  0.62528258     0.02400
C560        C  0.30988805  0.34803799  0.64685162    -0.18100
H561        H  0.29965438  0.36670112  0.64773508     0.04400
H562        H  0.34415149  0.27980635  0.64166324     0.04400
C563        C  0.01868712  0.20823241  0.83589223     0.02400
C564        C  0.48059195  0.18450398  0.83546942     0.02400
C565        C  0.46415903  0.15898739  0.85646438    -0.18100
C566        C  0.48436343  0.15761040  0.87833432     0.02400
C567        C  0.02153380  0.18391557  0.88018507     0.02400
C568        C  0.03763977  0.20975553  0.85969222    -0.18100
H569        H  0.06637791  0.22915361  0.86114647     0.04400
H570        H  0.43537604  0.13953974  0.85550181     0.04400
C571        C  0.28579873  0.31018392  0.84178555     0.02400
C572        C  0.30054077  0.28648054  0.84246987     0.02400
C573        C  0.32411597  0.28922801  0.86360509    -0.18100
C574        C  0.33564021  0.31611985  0.88318530     0.02400
C575        C  0.32334684  0.34103283  0.88169494     0.02400
C576        C  0.30045124  0.33893137  0.86060735    -0.18100
H577        H  0.29400001  0.36032383  0.85914509     0.04400
H578        H  0.33597273  0.27190754  0.86355213     0.04400
C579        C  0.19929101  0.01837605  0.83771108     0.02400
C580        C  0.18527181  0.48049944  0.83788910     0.02400
C581        C  0.16362715  0.45994668  0.85995136    -0.18100
C582        C  0.15348081  0.47546758  0.88054356     0.02400
C583        C  0.16712961  0.01306534  0.88041388     0.02400
C584        C  0.19042792  0.03417734  0.85925788    -0.18100
H585        H  0.20097832  0.06310673  0.85915369     0.04400
H586        H  0.15228937  0.43087934  0.86007336     0.04400
C587        C  0.20239636  0.02273577  0.66048236     0.02400
C588        C  0.19221481  0.48541538  0.65802423     0.02400
C589        C  0.17073911  0.46503746  0.63592790    -0.18100
C590        C  0.15577657  0.47899316  0.61754446     0.02400
C591        C  0.16362217  0.01492118  0.62102690     0.02400
C592        C  0.18430565  0.03495805  0.64315792    -0.18100
H593        H  0.18693796  0.06115786  0.64620763     0.04400
H594        H  0.16412408  0.43719458  0.63389059     0.04400
C595        C  0.16559740  0.33702224  0.72150639     0.45600
H596        H  0.16698946  0.33754275  0.69899707    -0.03400
C597        C  0.16059658  0.33563499  0.77398815     0.45700
H598        H  0.15669388  0.33493056  0.79625729    -0.03400
C599        C  0.12758152  0.30898933  0.73252227    -0.17100
C600        C  0.19227285  0.32736943  0.73562360    -0.16900
C601        C  0.17433460  0.37370697  0.73352832    -0.17200
C602        C  0.12516823  0.30863855  0.76022033    -0.17200
C603        C  0.18934285  0.32591801  0.76382525    -0.16800
C604        C  0.17103722  0.37266469  0.76133098    -0.17100
C605        C  0.16160145  0.42212863  0.71820172    -0.20200
C606        C  0.18326576  0.40607974  0.71608151    -0.06700
C607        C  0.21197985  0.42042169  0.69674980     0.14100
C608        C  0.21620377  0.44819483  0.67890298    -0.20200
C609        C  0.19329280  0.46287585  0.68057065    -0.06700
C610        C  0.16651281  0.45050781  0.70113102     0.14100
C611        C  0.14217307  0.46645747  0.70452588    -0.23600
H612        H  0.13969584  0.41174893  0.73257978     0.15400
H613        H  0.23673781  0.45778944  0.66307707     0.15400
C614        C  0.23859337  0.40710622  0.69495699    -0.23500
H615        H  0.12242772  0.45336590  0.72142886     0.05700
H616        H  0.12668305  0.46301925  0.68562253     0.08900
H617        H  0.15880191  0.49566174  0.70915171     0.08900
H618        H  0.22509804  0.37917608  0.68718711     0.08900
H619        H  0.25030983  0.40823882  0.71529292     0.08900
H620        H  0.26130795  0.42390944  0.68080765     0.05600
C621        C  0.21064153  0.42913740  0.78708906    -0.20200
C622        C  0.17581632  0.40356444  0.77823635    -0.06700
C623        C  0.14579182  0.40627408  0.78732788     0.14100
C624        C  0.15149389  0.43571587  0.80308177    -0.20200
C625        C  0.18562525  0.45948449  0.81397299    -0.06700
C626        C  0.21562899  0.45571682  0.80618815     0.14100
C627        C  0.25221284  0.47671645  0.81922210    -0.23600
H628        H  0.23358900  0.42639064  0.78090632     0.15400
H629        H  0.12830106  0.43784762  0.80962630     0.15400
C630        C  0.10742174  0.37690075  0.78255973    -0.23500
H631        H  0.26090655  0.45778187  0.82689131     0.05700
H632        H  0.25179800  0.49229969  0.83690170     0.08900
H633        H  0.27234811  0.99525947  0.80404391     0.08900
H634        H  0.10317970  0.35163077  0.79223694     0.08900
H635        H  0.10178313  0.37272423  0.76065809     0.08900
H636        H  0.08737136  0.38328446  0.79158350     0.05600
C637        C  0.25034052  0.29241888  0.79639383    -0.20200
C638        C  0.25644752  0.30772425  0.82258721    -0.06700
C639        C  0.23383474  0.32201181  0.83022030     0.14100
C640        C  0.21635071  0.33101784  0.81017081    -0.20200
C641        C  0.21092343  0.31673546  0.78380411    -0.06700
C642        C  0.22436183  0.29273407  0.77871769     0.14100
C643        C  0.20929767  0.26405883  0.75718604    -0.23600
H644        H  0.26379307  0.27832825  0.78957380     0.15400
H645        H  0.20531712  0.34779703  0.81623450     0.15400
C646        C  0.22411893  0.32472956  0.85933265    -0.23500
H647        H  0.19973919  0.23724359  0.76684068     0.05700
H648        H  0.23068024  0.26873643  0.74211942     0.08900
H649        H  0.18547009  0.26239570  0.74692295     0.08900
H650        H  0.23504750  0.35344550  0.86492253     0.08900
H651        H  0.23363040  0.31143829  0.87387676     0.08900
H652        H  0.19412689  0.31042395  0.86155053     0.05600
C653        C  0.03365482  0.25163532  0.79632988    -0.20200
C654        C  0.04129262  0.22859531  0.81182884    -0.06700
C655        C  0.07422992  0.22887591  0.80662987     0.14100
C656        C  0.10145017  0.25708662  0.79158171    -0.20200
C657        C  0.09441131  0.28068170  0.77658709    -0.06700
C658        C  0.05914012  0.27625392  0.77753169     0.14100
C659        C  0.04751235  0.29700832  0.75951998    -0.23600
H660        H  0.00841322  0.25140027  0.79921670     0.15400
H661        H  0.12778747  0.25905052  0.78998469     0.15400
C662        C  0.08129218  0.19931545  0.81603175    -0.23500
H663        H  0.03708036  0.31146154  0.77196939     0.05700
H664        H  0.02591121  0.27791236  0.74586727     0.08900
H665        H  0.06962100  0.31679737  0.74642459     0.08900
H666        H  0.05684322  0.17589205  0.82492597     0.08900
H667        H  0.10359339  0.21015426  0.83108694     0.08900
H668        H  0.08945547  0.18891744  0.79834565     0.05600
C669        C  0.23761821  0.30131400  0.67987075    -0.20200
C670        C  0.27386032  0.31963982  0.68779163    -0.06700
C671        C  0.28371292  0.34084721  0.71146957     0.14100
C672        C  0.25673115  0.34288890  0.72674624    -0.20200
C673        C  0.21988893  0.32334073  0.71927208    -0.06700
C674        C  0.21049100  0.30160904  0.69559116     0.14100
C675        C  0.17236138  0.27715102  0.68626156    -0.23600
H676        H  0.23030348  0.28675510  0.66083399     0.15400
H677        H  0.26448507  0.36016185  0.74439831     0.15400
C678        C  0.32273505  0.36211258  0.72002658    -0.23500
H679        H  0.16764358  0.24935449  0.68355077     0.05700
H680        H  0.16769266  0.28705708  0.66664873     0.08900
H681        H  0.15249831  0.27515205  0.70115546     0.08900
H682        H  0.33912055  0.38171791  0.70380509     0.08900
H683        H  0.33333569  0.34346050  0.72369444     0.08900
H684        H  0.32589884  0.37733977  0.73900110     0.05600
C685        C  0.05272776  0.22311940  0.70004617    -0.20200
C686        C  0.03899188  0.23741737  0.68094552    -0.06700
C687        C  0.05404268  0.27514250  0.67891075     0.14100
C688        C  0.08289907  0.29780572  0.69601985    -0.20200
C689        C  0.09729909  0.28348448  0.71475382    -0.06700
C690        C  0.08226475  0.24545974  0.71632350     0.14100
C691        C  0.09842864  0.22723082  0.73273181    -0.23600
H692        H  0.04216140  0.19416735  0.70061254     0.15400
H693        H  0.09445768  0.32683657  0.69469307     0.15400
C694        C  0.03999935  0.29123963  0.65837446    -0.23500
H695        H  0.10523960  0.21083586  0.71909526     0.05700
H696        H  0.07843240  0.20893732  0.74806844     0.08900
H697        H  0.12381853  0.24665407  0.74290260     0.08900
H698        H  0.01069403  0.28087663  0.66214304     0.08900
H699        H  0.04368940  0.28369851  0.63755474     0.08900
H700        H  0.05447560  0.32118034  0.65955541     0.05600
C701        C  0.38811312  0.31099306  0.94426916    -0.20200
C702        C  0.42177217  0.34259354  0.94026286    -0.06700
C703        C  0.42782645  0.36283074  0.91597751     0.14100
C704        C  0.39988320  0.35170506  0.89701774    -0.20200
C705        C  0.36537807  0.32206707  0.90206674    -0.06700
C706        C  0.35967932  0.30065063  0.92548970     0.14100
C707        C  0.32352510  0.26747281  0.93089977    -0.23600
H708        H  0.38351680  0.29531546  0.96271459     0.15400
H709        H  0.40466073  0.36724434  0.87846185     0.15400
C710        C  0.46318318  0.39644760  0.90917384    -0.23500
H711        H  0.32341421  0.25415178  0.95034941     0.05700
H712        H  0.31712352  0.24777878  0.91427274     0.08900
H713        H  0.30201869  0.27480706  0.93199284     0.08900
H714        H  0.48419557  0.40353509  0.92478449     0.08900
H715        H  0.45852840  0.41964345  0.90681661     0.08900
H716        H  0.47400086  0.39252476  0.88972880     0.05600
C717        C  0.13697530  0.44795883  0.92671340    -0.20200
C718        C  0.12595579  0.45146458  0.90065145    -0.06700
C719        C  0.08872281  0.43283023  0.89418818     0.14100
C720        C  0.06319976  0.41532724  0.91499671    -0.20200
C721        C  0.07408283  0.41429967  0.94166618    -0.06700
C722        C  0.11136884  0.42834507  0.94710595     0.14100
C723        C  0.12510927  0.42277201  0.97376732    -0.23600
H724        H  0.16567537  0.46069345  0.93117653     0.15400
H725        H  0.03464199  0.40250620  0.91043479     0.15400
C726        C  0.07589861  0.43157598  0.86547404    -0.23500
H727        H  0.13951109  0.40753078  0.97022163     0.05700
H728        H  0.10302790  0.40717666  0.98862726     0.08900
H729        H  0.14470696  0.44930460  0.98258855     0.08900
H730        H  0.08626493  0.41769986  0.85231269     0.08900
H731        H  0.08585938  0.45924106  0.85744849     0.08900
H732        H  0.04583620  0.41651958  0.86422080     0.05600
C733        C  0.13603115  0.46781123  0.56917574    -0.20200
C734        C  0.12965525  0.45540983  0.59618914    -0.06700
C735        C  0.09589311  0.42431471  0.60277661     0.14100
C736        C  0.06972465  0.40731374  0.58228599    -0.20200
C737        C  0.07491541  0.42278989  0.55630102    -0.06700
C738        C  0.10794752  0.45445434  0.55016360     0.14100
C739        C  0.11268776  0.47626397  0.52477042    -0.23600
H740        H  0.16204207  0.99060471  0.56367549     0.15400
H741        H  0.04406752  0.38336579  0.58708522     0.15400
C742        C  0.08620416  0.41013547  0.63148785    -0.23500
H743        H  0.14117228  0.99832870  0.52192730     0.05700
H744        H  0.09532450  0.48874404  0.52624827     0.08900
H745        H  0.10433168  0.95892455  0.50666173     0.08900
H746        H  0.08903930  0.43196452  0.64513777     0.08900
H747        H  0.10388251  0.39964507  0.63853698     0.08900
H748        H  0.05776770  0.38756252  0.63310038     0.05600
C749        C  0.35909567  0.32685837  0.57389720    -0.20200
C750        C  0.37035254  0.32901304  0.60099435    -0.06700
C751        C  0.40668501  0.33830481  0.60631196     0.14100
C752        C  0.43108566  0.34707706  0.58450229    -0.20200
C753        C  0.42022990  0.34724724  0.55770155    -0.06700
C754        C  0.38380251  0.33663751  0.55221725     0.14100
C755        C  0.37115647  0.33596877  0.52355925    -0.23600
H756        H  0.33109145  0.31879982  0.56977712     0.15400
H757        H  0.45910454  0.35487705  0.58840884     0.15400
C758        C  0.42035475  0.34026028  0.63485001    -0.23500
H759        H  0.34176334  0.32692790  0.52284411     0.05700
H760        H  0.37600293  0.31715664  0.51116821     0.08900
H761        H  0.38626537  0.36345734  0.51446726     0.08900
H762        H  0.40666209  0.31305471  0.64437623     0.08900
H763        H  0.41523764  0.35879507  0.64729115     0.08900
H764        H  0.44996636  0.35029334  0.63513576     0.05600
C765        C  0.43467035  0.10174681  0.55914316    -0.20200
C766        C  0.44534552  0.07563607  0.55818006    -0.06700
C767        C  0.46827361  0.07517382  0.57884265     0.14100
C768        C  0.47888359  0.10012433  0.60016585    -0.20200
C769        C  0.46852444  0.12650197  0.60089218    -0.06700
C770        C  0.44648647  0.12752427  0.57985800     0.14100
C771        C  0.43583893  0.15610158  0.57871647    -0.23600
H772        H  0.41737877  0.10236817  0.54328163     0.15400
H773        H  0.99641056  0.09987446  0.61597517     0.15400
C774        C  0.48150286  0.04843037  0.57884897    -0.23500
H775        H  0.42203732  0.15525069  0.55939275     0.05700
H776        H  0.46009029  0.18339378  0.58051070     0.08900
H777        H  0.41651584  0.15117538  0.59535718     0.08900
H778        H  0.49892427  0.05296037  0.56076238     0.08900
H779        H  0.45804457  0.02052713  0.57869832     0.08900
H780        H  0.99797566  0.05120631  0.59709277     0.05600
C781        C  0.42588500  0.09452797  0.93527014    -0.20200
C782        C  0.44278824  0.07382528  0.93938433    -0.06700
C783        C  0.47157835  0.07926446  0.92183647     0.14100
C784        C  0.48191018  0.10456604  0.90070158    -0.20200
C785        C  0.46711479  0.12724326  0.89812741    -0.06700
C786        C  0.43815235  0.12170808  0.91537514     0.14100
C787        C  0.92043382  0.14465739  0.91435930    -0.23600
H788        H  0.40378666  0.09062864  0.94848495     0.15400
H789        H  0.50297958  0.10784831  0.88665574     0.15400
C790        C  0.49224653  0.05938610  0.92515408    -0.23500
H791        H  0.92205733  0.15654864  0.93467194     0.05700
H792        H  0.89144564  0.12758169  0.90885349     0.08900
H793        H  0.93338545  0.16735597  0.89970199     0.08900
H794        H  0.47368828  0.02999226  0.92369608     0.08900
H795        H  0.50595759  0.06577419  0.94510991     0.08900
H796        H  0.51355202  0.06716901  0.90930597     0.05600
C797        C  0.36621806  0.40283131  0.89712845    -0.20200
C798        C  0.33459690  0.36988384  0.90212262    -0.06700
C799        C  0.31575543  0.36426613  0.92699982     0.14100
C800        C  0.33007924  0.39134557  0.94679123    -0.20200
C801        C  0.36296951  0.42343414  0.94239318    -0.06700
C802        C  0.38106673  0.42936391  0.91718388     0.14100
C803        C  0.41578896  0.46381699  0.91121631    -0.23600
H804        H  0.37999675  0.40725517  0.87775103     0.15400
H805        H  0.31588803  0.38705844  0.96598212     0.15400
C806        C  0.28058039  0.33022753  0.93325672    -0.23500
H807        H  0.42559874  0.46452623  0.89017045     0.05700
H808        H  0.43716137  0.46629845  0.92533891     0.08900
H809        H  0.41137211  0.48712923  0.91366971     0.08900
H810        H  0.28385210  0.31707203  0.95167752     0.08900
H811        H  0.25906875  0.33709705  0.93720473     0.08900
H812        H  0.27131925  0.31051006  0.91643418     0.05600
C813        C  0.31881387  0.37442152  0.58398463    -0.20200
C814        C  0.34302104  0.37968521  0.60503374    -0.06700
C815        C  0.37823766  0.41011438  0.60459069     0.14100
C816        C  0.38931050  0.43323013  0.58205652    -0.20200
C817        C  0.36560039  0.42741395  0.56051474    -0.06700
C818        C  0.32973831  0.39791808  0.56155620     0.14100
C819        C  0.30367500  0.38989753  0.53846731    -0.23600
H820        H  0.29189158  0.35082238  0.58451868     0.15400
H821        H  0.41659502  0.45620561  0.58144951     0.15400
C822        C  0.40464554  0.41897195  0.62753376    -0.23500
H823        H  0.27758388  0.36452909  0.54205383     0.05700
H824        H  0.31572155  0.38682715  0.51934104     0.08900
H825        H  0.29756676  0.41211009  0.53610065     0.10300
H826        H  0.42887512  0.41817054  0.62013396     0.08900
H827        H  0.39276185  0.40015197  0.64501235     0.08900
H828        H  0.41330860  0.44654292  0.63504838     0.05600
C829        C  0.08518975  0.15574484  0.58382058    -0.20200
C830        C  0.07649720  0.15824733  0.55675161    -0.06700
C831        C  0.05445917  0.17327466  0.55078503     0.14100
C832        C  0.04005173  0.18391363  0.57191721    -0.20200
C833        C  0.04611853  0.17862493  0.59897795    -0.06700
C834        C  0.07001103  0.16565127  0.60517278     0.14100
C835        C  0.57788650  0.16044537  0.63414220    -0.23600
H836        H  0.10222021  0.14421180  0.58827722     0.15400
H837        H  0.02210339  0.19433210  0.56737817     0.15400
C838        C  0.04557957  0.17749372  0.52210709    -0.23500
H839        H  0.59628213  0.14908944  0.63526253     0.05700
H840        H  0.55227453  0.14159797  0.64488273     0.08900
H841        H  0.59117086  0.18678471  0.64475571     0.08900
H842        H  0.03092141  0.15056058  0.51239326     0.08900
H843        H  0.07130451  0.19531829  0.51111240     0.08900
H844        H  0.02811436  0.18990606  0.52089528     0.05600
C845        C  0.05568954  0.17379337  0.94831543    -0.20200
C846        C  0.07658922  0.15831871  0.94080647    -0.06700
C847        C  0.08418546  0.15683615  0.91312883     0.14100
C848        C  0.06835751  0.16852845  0.89352354    -0.20200
C849        C  0.04506763  0.18142313  0.90119294    -0.06700
C850        C  0.04064887  0.18634140  0.92888441     0.14100
C851        C  0.02036656  0.20496633  0.93791076    -0.23600
H852        H  0.05027752  0.17528872  0.96937339     0.15400
H853        H  0.07199204  0.16511743  0.87218396     0.15400
C854        C  0.10731399  0.14121350  0.90430597    -0.23500
H855        H  0.01994247  0.20692568  0.96038804     0.05700
H856        H  0.49201167  0.19018148  0.93087246     0.08900
H857        H  0.03374452  0.23274241  0.92929731     0.08900
H858        H  0.09483815  0.11279808  0.91134559     0.08900
H859        H  0.13478432  0.15706359  0.91320740     0.08900
H860        H  0.11021013  0.14168936  0.88185565     0.05600
C861        C  0.12080694  0.02548628  0.90054119    -0.20200
C862        C  0.15589686  0.03044553  0.90146643    -0.06700
C863        C  0.17954698  0.05166272  0.92227878     0.14100
C864        C  0.16753086  0.06745638  0.94164359    -0.20200
C865        C  0.13225498  0.06240953  0.94091210    -0.06700
C866        C  0.10859378  0.04120388  0.91977794     0.14100
C867        C  0.07093387  0.03544018  0.91574340    -0.23600
H868        H  0.10290380  0.00976743  0.88426557     0.15400
H869        H  0.18572445  0.08351061  0.95773040     0.15400
C870        C  0.21723880  0.05711894  0.92433091    -0.23500
H871        H  0.06871146  0.04406689  0.89485943     0.05700
H872        H  0.06366991  0.05093147  0.92971924     0.08900
H873        H  0.05071365  0.00629748  0.91818186     0.08900
H874        H  0.23310757  0.07105299  0.90581403     0.08900
H875        H  0.21575126  0.03055459  0.92644757     0.08900
H876        H  0.23194755  0.07379395  0.94216356     0.05600
C877        C  0.11781805  0.02735824  0.60012578    -0.20200
C878        C  0.15337622  0.03359822  0.60044381    -0.06700
C879        C  0.17827909  0.05585527  0.58013870     0.14100
C880        C  0.16694571  0.07123049  0.56008439    -0.20200
C881        C  0.13110862  0.06423566  0.55911193    -0.06700
C882        C  0.10623288  0.04228292  0.57965296     0.14100
C883        C  0.06780151  0.03510019  0.58062483    -0.23600
H884        H  0.09892925  0.01018123  0.61570742     0.15400
H885        H  0.18609549  0.08781453  0.54440770     0.15400
C886        C  0.21629640  0.06204362  0.57780380    -0.23500
H887        H  0.05306591  0.01924280  0.59896196     0.05700
H888        H  0.05264649  0.01930830  0.56262079     0.08900
H889        H  0.06782476  0.06107374  0.58112945     0.08900
H890        H  0.22218347  0.04641830  0.59289096     0.08900
H891        H  0.23613273  0.09121207  0.58030338     0.08900
H892        H  0.22022940  0.05354223  0.55739181     0.05600
C893        C  0.28577856  0.21804258  0.71493547    -0.20200
C894        C  0.32011052  0.22584728  0.72407598    -0.06700
C895        C  0.35104076  0.25812417  0.71541884     0.14100
C896        C  0.34662219  0.28303362  0.69981806    -0.20200
C897        C  0.31279415  0.27439828  0.68899104    -0.06700
C898        C  0.28199421  0.24092158  0.69617408     0.14100
C899        C  0.24579028  0.22693807  0.68274161    -0.23600
H900        H  0.26225043  0.19248987  0.72061298     0.15400
H901        H  0.37045504  0.30794288  0.69342655     0.15400
C902        C  0.38894660  0.26500581  0.72000811    -0.23500
H903        H  0.23673479  0.19968164  0.67435244     0.05700
H904        H  0.24695956  0.24411867  0.66550768     0.08900
H905        H  0.22549115  0.22499602  0.69786171     0.08900
H906        H  0.39262834  0.24478670  0.70863449     0.08900
H907        H  0.39406628  0.26314712  0.74174029     0.08900
H908        H  0.40984188  0.29213489  0.71255613     0.05600
C909        C  0.33658604  0.25631298  0.78481477    -0.20200
C910        C  0.31375492  0.21876238  0.78565092    -0.06700
C911        C  0.28284295  0.20409516  0.80290179     0.14100
C912        C  0.27695601  0.22714140  0.81985400    -0.20200
C913        C  0.30070487  0.26454466  0.81945013    -0.06700
C914        C  0.33026859  0.27934825  0.80103977     0.14100
C915        C  0.35668978  0.31935874  0.79875458    -0.23600
H916        H  0.36023231  0.26807148  0.77198038     0.15400
H917        H  0.25465392  0.21585765  0.83429455     0.15400
C918        C  0.25601410  0.16430350  0.80367458    -0.23500
H919        H  0.38422023  0.32494859  0.80446032     0.05700
H920        H  0.34946296  0.33581960  0.81185156     0.08900
H921        H  0.35741042  0.32832524  0.77743468     0.08900
H922        H  0.26903861  0.14962325  0.81217682     0.08900
H923        H  0.24598144  0.15469029  0.78286142     0.08900
H924        H  0.23223216  0.15793168  0.81675386     0.05600
C925        C  0.40957311  0.20134828  0.80401766    -0.20200
C926        C  0.39714682  0.17662548  0.78253735    -0.06700
C927        C  0.41395785  0.15560168  0.77774805     0.14100
C928        C  0.44351181  0.16110063  0.79381012    -0.20200
C929        C  0.45587786  0.18597150  0.81509448    -0.06700
C930        C  0.43855601  0.20616343  0.82037227     0.14100
C931        C  0.45020598  0.23229119  0.84369978    -0.23600
H932        H  0.39670166  0.21729288  0.80782563     0.15400
H933        H  0.45574521  0.14444190  0.79067650     0.15400
C934        C  0.40052922  0.12580965  0.75708190    -0.23500
H935        H  0.43402221  0.24608784  0.84482735     0.05700
H936        H  0.47916315  0.25326226  0.84125000     0.08900
H937        H  0.44664156  0.21768527  0.86318080     0.08900
H938        H  0.42176050  0.13258688  0.74136012     0.08900
H939        H  0.37525323  0.12076074  0.74702067     0.08900
H940        H  0.39462106  0.10019454  0.76726578     0.05600
C941        C  0.38892873  0.16757307  0.69298009    -0.20200
C942        C  0.39833141  0.18409234  0.71851157    -0.06700
C943        C  0.43581874  0.20763005  0.72344205     0.14100
C944        C  0.46179066  0.20702865  0.70588665    -0.20200
C945        C  0.45209232  0.19070413  0.68002585    -0.06700
C946        C  0.41503989  0.17577712  0.67283439     0.14100
C947        C  0.40238834  0.17306811  0.64399055    -0.23600
H948        H  0.36084342  0.15031899  0.68746944     0.15400
H949        H  0.48937561  0.22098254  0.71261175     0.15400
C950        C  0.44973208  0.23618740  0.74496514    -0.23500
H951        H  0.38550661  0.18607543  0.64214865     0.05700
H952        H  0.38562114  0.14432046  0.63807233     0.08900
H953        H  0.42554963  0.18816693  0.62990202     0.08900
H954        H  0.46683888  0.26298627  0.73522414     0.08900
H955        H  0.42785975  0.23793793  0.75560810     0.08900
H956        H  0.46617823  0.23109033  0.75984430     0.05600
C957        C  0.23854125  0.08287915  0.77732055    -0.20200
C958        C  0.27596024  0.09947392  0.78264036    -0.06700
C959        C  0.28754037  0.08636238  0.80479719     0.14100
C960        C  0.26163130  0.05936559  0.82178724    -0.20200
C961        C  0.22451577  0.04292166  0.81648719    -0.06700
C962        C  0.21276285  0.05452256  0.79373792     0.14100
C963        C  0.17329287  0.03827302  0.78668495    -0.23600
H964        H  0.22922614  0.09256947  0.76054419     0.15400
H965        H  0.27051939  0.05160744  0.83990208     0.15400
C966        C  0.32688359  0.09886591  0.81032625    -0.23500
H967        H  0.16554962  0.05948421  0.78740784     0.05700
H968        H  0.15521004  0.01610166  0.80071325     0.08900
H969        H  0.16873762  0.52709641  0.76582597     0.08900
H970        H  0.34107806  0.12638055  0.81879655     0.08900
H971        H  0.34039152  0.09769793  0.79149070     0.08900
H972        H  0.32989176  0.08122470  0.82548089     0.05600
C973        C  0.24214845  0.04036131  0.70374070    -0.20200
C974        C  0.23119855  0.05029467  0.67963992    -0.06700
C975        C  0.24907960  0.08819991  0.67390258     0.14100
C976        C  0.26725535  0.11309419  0.69453863    -0.20200
C977        C  0.27819188  0.10319923  0.71829295    -0.06700
C978        C  0.26820041  0.06630513  0.72128166     0.14100
C979        C  0.28656315  0.05331163  0.74067829    -0.23600
H980        H  0.23275522  0.01271216  0.70885539     0.15400
H981        H  0.27561547  0.14112730  0.69063836     0.15400
C982        C  0.25496813  0.10414984  0.64566258    -0.23500
H983        H  0.29660448  0.03763040  0.72934491     0.05700
H984        H  0.26703325  0.03545539  0.75644886     0.08900
H985        H  0.31059662  0.07582928  0.75024059     0.08900
H986        H  0.23922038  0.11818890  0.64282068     0.08900
H987        H  0.24839054  0.08364430  0.62983574     0.08900
H988        H  0.28417920  0.12418333  0.64260484     0.05600
C989        C  0.33062732  0.66674924  0.27867893     0.45600
H990        H  0.33042374  0.66623316  0.30114541    -0.03400
C991        C  0.33121643  0.67077337  0.22626767     0.45700
H992        H  0.33143623  0.67403816  0.20398146    -0.03400
C993        C  0.30214115  0.63108198  0.26552495    -0.17100
C994        C  0.32242250  0.69580150  0.26778882    -0.16900
C995        C  0.36713556  0.67455722  0.26559425    -0.17200
C996        C  0.30246566  0.63298469  0.23740126    -0.17200
C997        C  0.32369015  0.69826101  0.24010544    -0.16800
C998        C  0.36776030  0.67763722  0.23761318    -0.17100
O999        O  0.14483595  0.61038090  0.02601407    -0.71600
O1000       O  0.11905074  0.65674819  0.47156205    -0.71900
O1001       O  0.11931291  0.65617941  0.02651590    -0.71700
O1002       O  0.14474465  0.61077033  0.47121151    -0.71700
O1003       O  0.09033039  0.56443329  0.47268093    -0.71700
O1004       O  0.06373745  0.61153151  0.02550896    -0.71700
O1005       O  0.06448207  0.61035243  0.47112065    -0.71600
O1006       O  0.08934633  0.56595427  0.02741759    -0.71800
V1007       V  0.13096168  0.63264929  0.49880448     1.35200
V1008       V  0.07807249  0.58893813  0.49912135     1.35200
C1009       C  0.12121257  0.58081842  0.03663537     0.77600
C1010       C  0.08732075  0.64117078  0.46199341     0.77700
C1011       C  0.08710412  0.64142889  0.03535054     0.77500
C1012       C  0.12182012  0.57991700  0.46236689     0.77500
O1013       O  0.41029328  0.96341275  0.02765549    -0.71600
O1014       O  0.44787761  0.53419757  0.47162002    -0.71900
O1015       O  0.44902698  0.53526966  0.02639969    -0.71700
O1016       O  0.40931021  0.96212885  0.47289125    -0.71700
O1017       O  0.35907448  0.96365822  0.47369489    -0.71700
O1018       O  0.39957500  0.53808362  0.02647956    -0.71700
O1019       O  0.39792029  0.53597690  0.47180383    -0.71600
O1020       O  0.36057944  0.96591659  0.02808319    -0.71800
V1021       V  0.42815322  0.99877683  0.99962522     1.35200
V1022       V  0.38027557  0.00091579  0.49998910     1.35200
C1023       C  0.37917483  0.95297867  0.03758714     0.77600
C1024       C  0.42910929  0.54685053  0.46183197     0.77700
C1025       C  0.43085609  0.54863649  0.03603919     0.77500
C1026       C  0.37762902  0.95070921  0.46401328     0.77500
O1027       O  0.46141180  0.88743162  0.47105945    -0.71600
O1028       O  0.03365729  0.92545121  0.02528867    -0.71900
O1029       O  0.03404387  0.92180996  0.47096842    -0.71700
O1030       O  0.46074833  0.89028643  0.02545828    -0.71700
O1031       O  0.45925869  0.83877830  0.02790587    -0.71700
O1032       O  0.03332187  0.87072368  0.47393541    -0.71700
O1033       O  0.03208825  0.87401868  0.02868654    -0.71600
O1034       O  0.45992508  0.83595260  0.47309459    -0.71800
V1035       V  0.49741095  0.90517487  0.49827817     1.35200
V1036       V  0.49612877  0.85579634  0.00084059     1.35200
C1037       C  0.44878678  0.85565550  0.46241991     0.77600
C1038       C  0.04543794  0.90654507  0.03609946     0.77700
C1039       C  0.04624805  0.90172593  0.46328425     0.77500
C1040       C  0.44768057  0.85916918  0.03596168     0.77500
C1041       C  0.47864905  0.68786947  0.16071168     0.02400
C1042       C  0.01684227  0.71275368  0.15916307     0.02400
C1043       C  0.03777165  0.70949105  0.13846865    -0.18100
C1044       C  0.02271202  0.68146916  0.11988837     0.02400
C1045       C  0.48551924  0.65584978  0.12142292     0.02400
C1046       C  0.46451420  0.65842280  0.14232652    -0.18100
H1047       H  0.43664026  0.63692421  0.14405003     0.04400
H1048       H  0.06674456  0.72834110  0.13749662     0.04400
C1049       C  0.30072227  0.82215219  0.16748720     0.02400
C1050       C  0.31386450  0.79757005  0.16596915     0.02400
C1051       C  0.33464888  0.79898194  0.14319850    -0.18100
C1052       C  0.34499676  0.82578642  0.12323412     0.02400
C1053       C  0.33240601  0.85058051  0.12528294     0.02400
C1054       C  0.30988821  0.84803822  0.14685192    -0.18100
H1055       H  0.29965441  0.86670125  0.14773533     0.04400
H1056       H  0.34415218  0.77980700  0.14166371     0.04400
C1057       C  0.01868696  0.70823220  0.33589205     0.02400
C1058       C  0.48059200  0.68450414  0.33546956     0.02400
C1059       C  0.46415904  0.65898760  0.35646458    -0.18100
C1060       C  0.48436360  0.65761065  0.37833445     0.02400
C1061       C  0.02153389  0.68391533  0.38018482     0.02400
C1062       C  0.03763973  0.70975521  0.35969192    -0.18100
H1063       H  0.06637795  0.72915326  0.36114608     0.04400
H1064       H  0.43537611  0.63954010  0.35550211     0.04400
C1065       C  0.28579819  0.81018387  0.34178556     0.02400
C1066       C  0.30054009  0.78648036  0.34246994     0.02400
C1067       C  0.32411525  0.78922783  0.36360516    -0.18100
C1068       C  0.33563965  0.81611972  0.38318533     0.02400
C1069       C  0.32334643  0.84103281  0.38169491     0.02400
C1070       C  0.30045089  0.83893136  0.36060729    -0.18100
H1071       H  0.29399984  0.86032400  0.35914496     0.04400
H1072       H  0.33597194  0.77190724  0.36355224     0.04400
C1073       C  0.19929107  0.51837580  0.33771137     0.02400
C1074       C  0.18527138  0.98049933  0.33788913     0.02400
C1075       C  0.16362666  0.95994648  0.35995135    -0.18100
C1076       C  0.15348040  0.97546737  0.38054361     0.02400
C1077       C  0.16712962  0.51306487  0.38041419     0.02400
C1078       C  0.19042797  0.53417697  0.35925824    -0.18100
H1079       H  0.20097835  0.56310636  0.35915411     0.04400
H1080       H  0.15228881  0.93087914  0.36007327     0.04400
C1081       C  0.20239662  0.52273596  0.16048229     0.02400
C1082       C  0.19221524  0.98541574  0.15802411     0.02400
C1083       C  0.17073969  0.96503785  0.13592772    -0.18100
C1084       C  0.15577717  0.97899355  0.11754426     0.02400
C1085       C  0.16362254  0.51492146  0.12102678     0.02400
C1086       C  0.18430595  0.53495825  0.14315783    -0.18100
H1087       H  0.18693818  0.56115804  0.14620758     0.04400
H1088       H  0.16412468  0.93719498  0.13389041     0.04400
C1089       C  0.16559711  0.83702235  0.22150630     0.45600
H1090       H  0.16698920  0.83754286  0.19899697    -0.03400
C1091       C  0.16059620  0.83563512  0.27398803     0.45700
H1092       H  0.15669352  0.83493069  0.29625719    -0.03400
C1093       C  0.12758119  0.80898947  0.23252214    -0.17100
C1094       C  0.19227254  0.82736951  0.23562354    -0.16900
C1095       C  0.17433433  0.87370710  0.23352820    -0.17200
C1096       C  0.12516786  0.80863869  0.26022021    -0.17200
C1097       C  0.18934246  0.82591812  0.26382518    -0.16800
C1098       C  0.17103689  0.87266482  0.26133086    -0.17100
C1099       C  0.16160148  0.92212895  0.21820154    -0.20200
C1100       C  0.18326564  0.90607990  0.21608139    -0.06700
C1101       C  0.21197978  0.92042177  0.19674972     0.14100
C1102       C  0.21620391  0.94819500  0.17890291    -0.20200
C1103       C  0.19329305  0.96287616  0.18057056    -0.06700
C1104       C  0.16651301  0.95050820  0.20113088     0.14100
C1105       C  0.14217343  0.96645806  0.20452570    -0.23600
H1106       H  0.13969580  0.91174930  0.23257961     0.15400
H1107       H  0.23673796  0.95778954  0.16307704     0.15400
C1108       C  0.23859316  0.90710614  0.19495690    -0.23500
H1109       H  0.12242798  0.95336650  0.22142863     0.05700
H1110       H  0.12668351  0.96301998  0.18562232     0.08900
H1111       H  0.15880236  0.99566229  0.20915159     0.08900
H1112       H  0.22509775  0.87917602  0.18718698     0.08900
H1113       H  0.25030955  0.90823862  0.21529286     0.08900
H1114       H  0.26130781  0.92390932  0.18080762     0.05600
C1115       C  0.21064118  0.92913746  0.28708903    -0.20200
C1116       C  0.17581599  0.90356458  0.27823623    -0.06700
C1117       C  0.14579148  0.90627425  0.28732770     0.14100
C1118       C  0.15149354  0.93571599  0.30308165    -0.20200
C1119       C  0.18562487  0.95948450  0.31397297    -0.06700
C1120       C  0.21562860  0.95571681  0.30618817     0.14100
C1121       C  0.25221238  0.97671630  0.31922227    -0.23600
H1122       H  0.23358865  0.92639067  0.28090633     0.15400
H1123       H  0.12830071  0.93784776  0.30962616     0.15400
C1124       C  0.10742140  0.87690098  0.28255947    -0.23500
H1125       H  0.26090600  0.95778163  0.32689142     0.05700
H1126       H  0.25179747  0.99229943  0.33690192     0.08900
H1127       H  0.27234823  0.49525876  0.30404420     0.08900
H1128       H  0.10317929  0.85163095  0.29223664     0.08900
H1129       H  0.10178286  0.87272454  0.26065781     0.08900
H1130       H  0.08737102  0.88328470  0.29158321     0.05600
C1131       C  0.25033963  0.79241862  0.29639397    -0.20200
C1132       C  0.25644699  0.80772430  0.32258723    -0.06700
C1133       C  0.23383451  0.82201225  0.33022022     0.14100
C1134       C  0.21635055  0.83101828  0.31017067    -0.20200
C1135       C  0.21092301  0.81673559  0.28380407    -0.06700
C1136       C  0.22436108  0.79273391  0.27871778     0.14100
C1137       C  0.20929674  0.76405860  0.25718618    -0.23600
H1138       H  0.26379193  0.77832757  0.28957405     0.15400
H1139       H  0.20531716  0.84779771  0.31623424     0.15400
C1140       C  0.22411886  0.82473035  0.35933254    -0.23500
H1141       H  0.19973796  0.73724335  0.26684089     0.05700
H1142       H  0.23067931  0.76873595  0.24211963     0.08900
H1143       H  0.18546936  0.76239572  0.24692298     0.08900
H1144       H  0.23504770  0.85344638  0.36492228     0.08900
H1145       H  0.23363016  0.81143902  0.37387673     0.08900
H1146       H  0.19412683  0.81042501  0.36155046     0.05600
C1147       C  0.03365447  0.75163521  0.29632975    -0.20200
C1148       C  0.04129232  0.72859514  0.31182860    -0.06700
C1149       C  0.07422960  0.72887576  0.30662950     0.14100
C1150       C  0.10144990  0.75708660  0.29158144    -0.20200
C1151       C  0.09441097  0.78068175  0.27658694    -0.06700
C1152       C  0.05913976  0.77625391  0.27753159     0.14100
C1153       C  0.04751195  0.79700832  0.25951993    -0.23600
H1154       H  0.00841287  0.75140014  0.29921665     0.15400
H1155       H  0.12778716  0.75905053  0.28998438     0.15400
C1156       C  0.08129182  0.69931519  0.31603117    -0.23500
H1157       H  0.03707983  0.81146140  0.27196935     0.05700
H1158       H  0.02591094  0.77791238  0.24586712     0.08900
H1159       H  0.06962063  0.81679749  0.24642461     0.08900
H1160       H  0.05684286  0.67589174  0.32492535     0.08900
H1161       H  0.10359306  0.71015384  0.33108633     0.08900
H1162       H  0.08945504  0.68891728  0.29834496     0.05600
C1163       C  0.23761824  0.80131407  0.17987090    -0.20200
C1164       C  0.27386031  0.81963991  0.18779188    -0.06700
C1165       C  0.28371275  0.84084727  0.21146983     0.14100
C1166       C  0.25673088  0.84288891  0.22674642    -0.20200
C1167       C  0.21988870  0.82334080  0.21927212    -0.06700
C1168       C  0.21049093  0.80160917  0.19559117     0.14100
C1169       C  0.17236138  0.77715134  0.18626134    -0.23600
H1170       H  0.23030362  0.78675519  0.16083413     0.15400
H1171       H  0.26448470  0.86016183  0.24439850     0.15400
C1172       C  0.32273484  0.86211271  0.22002694    -0.23500
H1173       H  0.16764344  0.74935474  0.18355063     0.05700
H1174       H  0.16769298  0.78705747  0.16664843     0.08900
H1175       H  0.15249816  0.77515249  0.20115506     0.08900
H1176       H  0.33912037  0.88171808  0.20380549     0.08900
H1177       H  0.33333554  0.84346069  0.22369484     0.08900
H1178       H  0.32589850  0.87733986  0.23900146     0.05600
C1179       C  0.05272759  0.72311940  0.20004607    -0.20200
C1180       C  0.03899150  0.73741725  0.18094549    -0.06700
C1181       C  0.05404209  0.77514235  0.17891076     0.14100
C1182       C  0.08289849  0.79780567  0.19601982    -0.20200
C1183       C  0.09729875  0.78348457  0.21475370    -0.06700
C1184       C  0.08226461  0.74545986  0.21632334     0.14100
C1185       C  0.09842870  0.72723106  0.23273155    -0.23600
H1186       H  0.04216138  0.69416739  0.20061242     0.15400
H1187       H  0.09445695  0.82683652  0.19469307     0.15400
C1188       C  0.03999853  0.79123933  0.15837452    -0.23500
H1189       H  0.10523984  0.71083630  0.21909492     0.05700
H1190       H  0.07843256  0.70893743  0.24806816     0.08900
H1191       H  0.12381854  0.74665442  0.24290234     0.08900
H1192       H  0.01069320  0.78087618  0.16214319     0.08900
H1193       H  0.04368855  0.78369827  0.13755478     0.08900
H1194       H  0.05447464  0.82118005  0.15955549     0.05600
C1195       C  0.38811272  0.81099262  0.44426905    -0.20200
C1196       C  0.42177179  0.84259312  0.44026274    -0.06700
C1197       C  0.42782598  0.86283044  0.41597747     0.14100
C1198       C  0.39988268  0.85170488  0.39701774    -0.20200
C1199       C  0.36537753  0.82206689  0.40206676    -0.06700
C1200       C  0.35967883  0.80065037  0.42548966     0.14100
C1201       C  0.32352454  0.76747266  0.43089979    -0.23600
H1202       H  0.38351643  0.79531497  0.46271441     0.15400
H1203       H  0.40466019  0.86724421  0.37846191     0.15400
C1204       C  0.46318268  0.89644737  0.40917383    -0.23500
H1205       H  0.32341369  0.75415153  0.45034938     0.05700
H1206       H  0.31712271  0.74777865  0.41427272     0.08900
H1207       H  0.30201828  0.77480711  0.43199304     0.08900
H1208       H  0.48419517  0.90353471  0.42478438     0.08900
H1209       H  0.45852788  0.91964324  0.40681686     0.08900
H1210       H  0.47400027  0.89252472  0.38972867     0.05600
C1211       C  0.13697497  0.94795824  0.42671333    -0.20200
C1212       C  0.12595538  0.95146434  0.40065148    -0.06700
C1213       C  0.08872240  0.93283023  0.39418826     0.14100
C1214       C  0.06319933  0.91532714  0.41499678    -0.20200
C1215       C  0.07408250  0.91429926  0.44166618    -0.06700
C1216       C  0.11136848  0.92834435  0.44710586     0.14100
C1217       C  0.12510890  0.92277087  0.47376708    -0.23600
H1218       H  0.16567500  0.96069261  0.43117638     0.15400
H1219       H  0.03464164  0.90250631  0.41043492     0.15400
C1220       C  0.07589813  0.93157623  0.36547417    -0.23500
H1221       H  0.13951051  0.90752948  0.47022115     0.05700
H1222       H  0.10302753  0.90717545  0.48862702     0.08900
H1223       H  0.14470675  0.94930328  0.48258846     0.08900
H1224       H  0.08626432  0.91770011  0.35231269     0.08900
H1225       H  0.08585900  0.95924138  0.35744874     0.08900
H1226       H  0.04583572  0.91651996  0.36422098     0.05600
C1227       C  0.13603166  0.96781153  0.06917558    -0.20200
C1228       C  0.12965582  0.95541020  0.09618898    -0.06700
C1229       C  0.09589362  0.92431520  0.10277652     0.14100
C1230       C  0.06972505  0.90731428  0.08228595    -0.20200
C1231       C  0.07491581  0.92279046  0.05630099    -0.06700
C1232       C  0.10794799  0.95445481  0.05016351     0.14100
C1233       C  0.11268821  0.97626453  0.02477038    -0.23600
H1234       H  0.16204236  0.49060522  0.06367535     0.15400
H1235       H  0.04406790  0.88336644  0.08708522     0.15400
C1236       C  0.08620472  0.91013603  0.13148778    -0.23500
H1237       H  0.14117222  0.49832970  0.02192746     0.05700
H1238       H  0.09532521  0.98874487  0.02624844     0.08900
H1239       H  0.10433169  0.45892563  0.00666173     0.08900
H1240       H  0.08903997  0.93196515  0.14513767     0.08900
H1241       H  0.10388303  0.89964558  0.13853690     0.08900
H1242       H  0.05776824  0.88756315  0.13310036     0.05600
C1243       C  0.35909618  0.82685886  0.07389759    -0.20200
C1244       C  0.37035308  0.82901364  0.10099474    -0.06700
C1245       C  0.40668561  0.83830559  0.10631233     0.14100
C1246       C  0.43108623  0.84707793  0.08450262    -0.20200
C1247       C  0.42023044  0.84724795  0.05770187    -0.06700
C1248       C  0.38380299  0.83663803  0.05221762     0.14100
C1249       C  0.37115689  0.83596916  0.02355961    -0.23600
H1250       H  0.33109191  0.81880017  0.06977751     0.15400
H1251       H  0.45910518  0.85487806  0.08840917     0.15400
C1252       C  0.42035538  0.84026109  0.13485036    -0.23500
H1253       H  0.34176373  0.82692814  0.02284449     0.05700
H1254       H  0.37600346  0.81715709  0.01116859     0.08900
H1255       H  0.38626567  0.86345772  0.01446759     0.08900
H1256       H  0.40666284  0.81305550  0.14437655     0.08900
H1257       H  0.41523814  0.85879576  0.14729154     0.08900
H1258       H  0.44996702  0.85029430  0.13513610     0.05600
C1259       C  0.43467002  0.60174643  0.05914342    -0.20200
C1260       C  0.44534550  0.57563591  0.05818026    -0.06700
C1261       C  0.46827366  0.57517377  0.07884283     0.14100
C1262       C  0.47888342  0.60012418  0.10016606    -0.20200
C1263       C  0.46852407  0.62650165  0.10089247    -0.06700
C1264       C  0.44648600  0.62752383  0.07985831     0.14100
C1265       C  0.43583821  0.65610094  0.07871685    -0.23600
H1266       H  0.41737839  0.60236770  0.04328193     0.15400
H1267       H  0.99640997  0.59987419  0.11597537     0.15400
C1268       C  0.48150322  0.54843056  0.07884904    -0.23500
H1269       H  0.42203656  0.65525002  0.05939315     0.05700
H1270       H  0.46008945  0.68339321  0.08051112     0.08900
H1271       H  0.41651507  0.65117456  0.09535758     0.08900
H1272       H  0.49892468  0.55296077  0.06076245     0.08900
H1273       H  0.45804508  0.52052723  0.07869834     0.08900
H1274       H  0.99797525  0.55120611  0.09709301     0.05600
C1275       C  0.42588507  0.59452842  0.43527028    -0.20200
C1276       C  0.44278812  0.57382557  0.43938446    -0.06700
C1277       C  0.47157823  0.57926466  0.42183665     0.14100
C1278       C  0.48191019  0.60456627  0.40070177    -0.20200
C1279       C  0.46711493  0.62724361  0.39812760    -0.06700
C1280       C  0.43815254  0.62170858  0.41537533     0.14100
C1281       C  0.92043432  0.64465799  0.41435947    -0.23600
H1282       H  0.40378672  0.59062917  0.44848511     0.15400
H1283       H  0.50297958  0.60784847  0.38665595     0.15400
C1284       C  0.49224629  0.55938618  0.42515432    -0.23500
H1285       H  0.92205798  0.65654926  0.43467212     0.05700
H1286       H  0.89144612  0.62758253  0.40885366     0.08900
H1287       H  0.93338614  0.66735660  0.39970218     0.08900
H1288       H  0.47368798  0.52999236  0.42369634     0.08900
H1289       H  0.50595737  0.56577431  0.44511013     0.08900
H1290       H  0.51355176  0.56716901  0.40930620     0.05600
C1291       C  0.36621773  0.90283122  0.39712849    -0.20200
C1292       C  0.33459647  0.86988382  0.40212259    -0.06700
C1293       C  0.31575484  0.86426618  0.42699970     0.14100
C1294       C  0.33007859  0.89134561  0.44679114    -0.20200
C1295       C  0.36296899  0.92343409  0.44239315    -0.06700
C1296       C  0.38106637  0.92936380  0.41718394     0.14100
C1297       C  0.41578875  0.96381679  0.41121646    -0.23600
H1298       H  0.37999653  0.90725506  0.37775112     0.15400
H1299       H  0.31588728  0.88705854  0.46598194     0.15400
C1300       C  0.28057967  0.83022768  0.43325649    -0.23500
H1301       H  0.42559865  0.96452599  0.39017064     0.05700
H1302       H  0.43716103  0.96629816  0.42533915     0.08900
H1303       H  0.41137203  0.98712912  0.41366977     0.08900
H1304       H  0.28385116  0.81707210  0.45167734     0.08900
H1305       H  0.25906808  0.83709731  0.43720436     0.08900
H1306       H  0.27131859  0.81051021  0.41643395     0.05600
C1307       C  0.31881426  0.87442173  0.08398487    -0.20200
C1308       C  0.34302133  0.87968558  0.10503409    -0.06700
C1309       C  0.37823793  0.91011479  0.10459106     0.14100
C1310       C  0.38931084  0.93323043  0.08205682    -0.20200
C1311       C  0.36560084  0.92741408  0.06051493    -0.06700
C1312       C  0.32973880  0.89791815  0.06155634     0.14100
C1313       C  0.30367569  0.88989736  0.03846728    -0.23600
H1314       H  0.29189201  0.85082255  0.08451889     0.15400
H1315       H  0.41659533  0.95620600  0.08144984     0.15400
C1316       C  0.40464572  0.91897248  0.12753422    -0.23500
H1317       H  0.27758459  0.86452888  0.04205377     0.05700
H1318       H  0.31572245  0.88682691  0.01934116     0.08900
H1319       H  0.29756735  0.91210982  0.03610037     0.10300
H1320       H  0.42887538  0.91817115  0.12013451     0.08900
H1321       H  0.39276201  0.90015253  0.14501281     0.08900
H1322       H  0.41330866  0.94654345  0.13504879     0.05600
C1323       C  0.08518896  0.65574410  0.08382053    -0.20200
C1324       C  0.07649664  0.65824690  0.05675156    -0.06700
C1325       C  0.05445882  0.67327450  0.05078504     0.14100
C1326       C  0.04005133  0.68391335  0.07191727    -0.20200
C1327       C  0.04611799  0.67862443  0.09897800    -0.06700
C1328       C  0.07001031  0.66565053  0.10517277     0.14100
C1329       C  0.57788619  0.66044532  0.13414234    -0.23600
H1330       H  0.10221928  0.64421088  0.08827713     0.15400
H1331       H  0.02210313  0.69433200  0.06737827     0.15400
C1332       C  0.04557956  0.67749404  0.02210710    -0.23500
H1333       H  0.59628185  0.64908942  0.13526268     0.05700
H1334       H  0.55227426  0.64159794  0.14488291     0.08900
H1335       H  0.59117055  0.68678470  0.14475579     0.08900
H1336       H  0.03092137  0.65056104  0.01239305     0.08900
H1337       H  0.07130462  0.69531865  0.01111257     0.08900
H1338       H  0.02811449  0.68990653  0.02089535     0.05600
C1339       C  0.05569051  0.67379415  0.44831516    -0.20200
C1340       C  0.07658962  0.65831884  0.44080626    -0.06700
C1341       C  0.08418516  0.65683540  0.41312859     0.14100
C1342       C  0.06835723  0.66852765  0.39352327    -0.20200
C1343       C  0.04506781  0.68142289  0.40119263    -0.06700
C1344       C  0.04064961  0.68634186  0.42888406     0.14100
C1345       C  0.02036754  0.70496708  0.43791029    -0.23600
H1346       H  0.05027901  0.67529015  0.46937313     0.15400
H1347       H  0.07199130  0.66511608  0.37218368     0.15400
C1348       C  0.10731292  0.64121186  0.40430578    -0.23500
H1349       H  0.01994396  0.70692708  0.46038754     0.05700
H1350       H  0.49201215  0.69018203  0.43087241     0.08900
H1351       H  0.03374534  0.73274294  0.42929640     0.08900
H1352       H  0.09483674  0.61279659  0.41134579     0.08900
H1353       H  0.13478348  0.65706176  0.41320688     0.08900
H1354       H  0.11020860  0.64168712  0.38185544     0.05600
C1355       C  0.12080680  0.52548552  0.40054158    -0.20200
C1356       C  0.15589682  0.53044500  0.40146676    -0.06700
C1357       C  0.17954704  0.55166250  0.42227895     0.14100
C1358       C  0.16753099  0.56745640  0.44164362    -0.20200
C1359       C  0.13225503  0.56240937  0.44091221    -0.06700
C1360       C  0.10859368  0.54120327  0.41977827     0.14100
C1361       C  0.07093361  0.53543918  0.41574387    -0.23600
H1362       H  0.10290359  0.50976643  0.38426612     0.15400
H1363       H  0.18572468  0.58351092  0.45773029     0.15400
C1364       C  0.21723885  0.55711871  0.42433112    -0.23500
H1365       H  0.06871088  0.54406549  0.39485983     0.05700
H1366       H  0.06366959  0.55093055  0.42971958     0.08900
H1367       H  0.05071360  0.50629647  0.41818260     0.08900
H1368       H  0.23310757  0.57105251  0.40581416     0.08900
H1369       H  0.21575130  0.53055439  0.42644802     0.08900
H1370       H  0.23194768  0.57379398  0.44216366     0.05600
C1371       C  0.11781824  0.52735835  0.10012579    -0.20200
C1372       C  0.15337650  0.53359849  0.10044375    -0.06700
C1373       C  0.17827930  0.55585563  0.08013863     0.14100
C1374       C  0.16694579  0.57123076  0.06008432    -0.20200
C1375       C  0.13110862  0.56423574  0.05911190    -0.06700
C1376       C  0.10623297  0.54228294  0.07965295     0.14100
C1377       C  0.06780151  0.53509995  0.08062485    -0.23600
H1378       H  0.09892954  0.51018131  0.11570740     0.15400
H1379       H  0.18609550  0.58781481  0.04440763     0.15400
C1380       C  0.21629667  0.56204415  0.07780369    -0.23500
H1381       H  0.05306600  0.51924255  0.09896199     0.05700
H1382       H  0.05264653  0.51930804  0.06262082     0.08900
H1383       H  0.06782462  0.56107345  0.08112948     0.08900
H1384       H  0.22218385  0.54641892  0.09289085     0.08900
H1385       H  0.23613290  0.59121263  0.08030327     0.08900
H1386       H  0.22022969  0.55354280  0.05739169     0.05600
C1387       C  0.28577857  0.71804266  0.21493566    -0.20200
C1388       C  0.32011048  0.72584733  0.22407629    -0.06700
C1389       C  0.35104079  0.75812424  0.21541927     0.14100
C1390       C  0.34662233  0.78303380  0.19981851    -0.20200
C1391       C  0.31279437  0.77439852  0.18899137    -0.06700
C1392       C  0.28199438  0.74092177  0.19617426     0.14100
C1393       C  0.24579058  0.72693830  0.18274159    -0.23600
H1394       H  0.26225042  0.69248995  0.22061306     0.15400
H1395       H  0.37045522  0.80794308  0.19342712     0.15400
C1396       C  0.38894658  0.76500582  0.22000863    -0.23500
H1397       H  0.23673521  0.69968191  0.17435237     0.05700
H1398       H  0.24696001  0.74411897  0.16550768     0.08900
H1399       H  0.22549130  0.72499614  0.19786159     0.08900
H1400       H  0.39262834  0.74478673  0.20863502     0.08900
H1401       H  0.39406615  0.76314708  0.24174083     0.08900
H1402       H  0.40984192  0.79213491  0.21255671     0.05600
C1403       C  0.33658548  0.75631281  0.28481495    -0.20200
C1404       C  0.31375458  0.71876219  0.28565124    -0.06700
C1405       C  0.28284265  0.70409490  0.30290216     0.14100
C1406       C  0.27695549  0.72714111  0.31985429    -0.20200
C1407       C  0.30070417  0.76454443  0.31945022    -0.06700
C1408       C  0.33026783  0.77934807  0.30103981     0.14100
C1409       C  0.35668880  0.81935859  0.29875442    -0.23600
H1410       H  0.36023172  0.76807138  0.27198054     0.15400
H1411       H  0.25465352  0.71585735  0.33429485     0.15400
C1412       C  0.25601399  0.66430319  0.30367513    -0.23500
H1413       H  0.38421933  0.82494871  0.30446018     0.05700
H1414       H  0.34946184  0.83581944  0.31185130     0.08900
H1415       H  0.35740932  0.82832486  0.27743447     0.08900
H1416       H  0.26903871  0.64962314  0.31217739     0.08900
H1417       H  0.24598128  0.65468981  0.28286200     0.08900
H1418       H  0.23223208  0.65793129  0.31675445     0.05600
C1419       C  0.40957299  0.70134822  0.30401790    -0.20200
C1420       C  0.39714668  0.67662544  0.28253759    -0.06700
C1421       C  0.41395779  0.65560172  0.27774826     0.14100
C1422       C  0.44351181  0.66110075  0.29381030    -0.20200
C1423       C  0.45587786  0.68597162  0.31509465    -0.06700
C1424       C  0.43855595  0.70616350  0.32037247     0.14100
C1425       C  0.45020595  0.73229130  0.34369995    -0.23600
H1426       H  0.39670146  0.71729280  0.30782589     0.15400
H1427       H  0.45574527  0.64444207  0.29067665     0.15400
C1428       C  0.40052922  0.62580970  0.25708211    -0.23500
H1429       H  0.43402211  0.74608790  0.34482753     0.05700
H1430       H  0.47916309  0.75326241  0.34125012     0.08900
H1431       H  0.44664162  0.71768544  0.36318098     0.08900
H1432       H  0.42176051  0.63258700  0.24136032     0.08900
H1433       H  0.37525321  0.62076073  0.24702088     0.08900
H1434       H  0.39462114  0.60019461  0.26726598     0.05600
C1435       C  0.38892843  0.66757310  0.19298024    -0.20200
C1436       C  0.39833119  0.68409229  0.21851177    -0.06700
C1437       C  0.43581852  0.70762993  0.22344224     0.14100
C1438       C  0.46179042  0.70702854  0.20588681    -0.20200
C1439       C  0.45209203  0.69070411  0.18002598    -0.06700
C1440       C  0.41503962  0.67577720  0.17283452     0.14100
C1441       C  0.40238806  0.67306824  0.14399069    -0.23600
H1442       H  0.36084316  0.65031907  0.18746960     0.15400
H1443       H  0.48937535  0.72098234  0.21261190     0.15400
C1444       C  0.44973189  0.73618726  0.24496536    -0.23500
H1445       H  0.38550650  0.68607573  0.14214879     0.05700
H1446       H  0.38562068  0.64432058  0.13807253     0.08900
H1447       H  0.42554934  0.68816686  0.12990211     0.08900
H1448       H  0.46683869  0.76298613  0.23522436     0.08900
H1449       H  0.42785960  0.73793780  0.25560836     0.08900
H1450       H  0.46617808  0.73109017  0.25984447     0.05600
C1451       C  0.23854114  0.58287887  0.27732084    -0.20200
C1452       C  0.27596012  0.59947372  0.28264058    -0.06700
C1453       C  0.28754032  0.58636219  0.30479737     0.14100
C1454       C  0.26163133  0.55936538  0.32178747    -0.20200
C1455       C  0.22451577  0.54292147  0.31648748    -0.06700
C1456       C  0.21276277  0.55452233  0.29373824     0.14100
C1457       C  0.17329276  0.53827276  0.28668535    -0.23600
H1458       H  0.22922595  0.59256918  0.26054446     0.15400
H1459       H  0.27051947  0.55160722  0.33990225     0.15400
C1460       C  0.32688355  0.59886572  0.31032638    -0.23500
H1461       H  0.16554953  0.55948398  0.28740821     0.05700
H1462       H  0.15520996  0.51610147  0.30071370     0.08900
H1463       H  0.16873728  0.02709667  0.26582625     0.08900
H1464       H  0.34107803  0.62638037  0.31879668     0.08900
H1465       H  0.34039145  0.59769778  0.29149079     0.08900
H1466       H  0.32989179  0.58122453  0.32548098     0.05600
C1467       C  0.24214861  0.54036127  0.20374067    -0.20200
C1468       C  0.23119872  0.55029481  0.17963992    -0.06700
C1469       C  0.24907967  0.58820006  0.17390269     0.14100
C1470       C  0.26725529  0.61309432  0.19453881    -0.20200
C1471       C  0.27819178  0.60319922  0.21829312    -0.06700
C1472       C  0.26820045  0.56630515  0.22128172     0.14100
C1473       C  0.28656320  0.55331164  0.24067833    -0.23600
H1474       H  0.23275559  0.51271226  0.20885522     0.15400
H1475       H  0.27561530  0.64112734  0.19063864     0.15400
C1476       C  0.25496823  0.60415014  0.14566273    -0.23500
H1477       H  0.29660466  0.53763054  0.22934493     0.05700
H1478       H  0.26703328  0.53545529  0.25644885     0.08900
H1479       H  0.31059659  0.57582930  0.25024071     0.08900
H1480       H  0.23922044  0.61818916  0.14282088     0.08900
H1481       H  0.24839077  0.58364471  0.12983582     0.08900
H1482       H  0.28417931  0.62418371  0.14260506     0.05600
C1483       C  0.33062763  0.66674945  0.77867858     0.45600
H1484       H  0.33042401  0.66623338  0.80114506    -0.03400
C1485       C  0.33121677  0.67077351  0.72626731     0.45700
H1486       H  0.33143658  0.67403827  0.70398109    -0.03400
C1487       C  0.30214144  0.63108219  0.76552460    -0.17100
C1488       C  0.32242287  0.69580171  0.76778843    -0.16900
C1489       C  0.36713587  0.67455739  0.76559392    -0.17200
C1490       C  0.30246598  0.63298484  0.73740091    -0.17200
C1491       C  0.32369051  0.69826117  0.74010506    -0.16800
C1492       C  0.36776063  0.67763736  0.73761285    -0.17100
O1493       O  0.14483648  0.61038123  0.52601410    -0.71600
O1494       O  0.11905034  0.65674806  0.97156219    -0.71900
O1495       O  0.11931326  0.65617965  0.52651580    -0.71700
O1496       O  0.14474403  0.61077006  0.97121150    -0.71700
O1497       O  0.09032977  0.56443305  0.97268096    -0.71700
O1498       O  0.06373787  0.61153164  0.52550886    -0.71700
O1499       O  0.06448163  0.61035236  0.97112074    -0.71600
O1500       O  0.08934689  0.56595451  0.52741750    -0.71800
V1501       V  0.13096120  0.63264904  0.99880453     1.35200
V1502       V  0.07807197  0.58893794  0.99912142     1.35200
C1503       C  0.12121309  0.58081869  0.53663535     0.77600
C1504       C  0.08732037  0.64117073  0.96199355     0.77700
C1505       C  0.08710446  0.64142906  0.53535042     0.77500
C1506       C  0.12181947  0.57991676  0.96236687     0.77500
O1507       O  0.41029247  0.96341286  0.52765556    -0.71600
O1508       O  0.44787756  0.53419753  0.97162000    -0.71900
O1509       O  0.44902689  0.53526953  0.52639968    -0.71700
O1510       O  0.40931102  0.96212897  0.97289113    -0.71700
O1511       O  0.35907515  0.96365807  0.97369497    -0.71700
O1512       O  0.39957497  0.53808358  0.52647953    -0.71700
O1513       O  0.39792018  0.53597676  0.97180386    -0.71600
O1514       O  0.36057866  0.96591675  0.52808314    -0.71800
V1515       V  0.42815250  0.99877682  0.49962523     1.35200
V1516       V  0.38027619  0.00091563  0.99998917     1.35200
C1517       C  0.37917401  0.95297883  0.53758716     0.77600
C1518       C  0.42910917  0.54685041  0.96183195     0.77700
C1519       C  0.43085605  0.54863640  0.53603917     0.77500
C1520       C  0.37762977  0.95070922  0.96401325     0.77500
O1521       O  0.46141202  0.88743240  0.97105969    -0.71600
O1522       O  0.03365693  0.92545078  0.52528867    -0.71900
O1523       O  0.03404399  0.92181027  0.97096842    -0.71700
O1524       O  0.46074766  0.89028553  0.52545796    -0.71700
O1525       O  0.45925832  0.83877756  0.52790580    -0.71700
O1526       O  0.03332231  0.87072416  0.97393563    -0.71700
O1527       O  0.03208812  0.87401834  0.52868634    -0.71600
O1528       O  0.45992550  0.83595346  0.97309462    -0.71800
V1529       V  0.49741138  0.90517566  0.99827829     1.35200
V1530       V  0.49612840  0.85579557  0.50084054     1.35200
C1531       C  0.44878713  0.85565634  0.96242003     0.77600
C1532       C  0.04543769  0.90654469  0.53609937     0.77700
C1533       C  0.04624834  0.90172634  0.96328437     0.77500
C1534       C  0.44767997  0.85916832  0.53596140     0.77500
C1535       C  0.47864953  0.68786954  0.66071155     0.02400
C1536       C  0.01684235  0.71275355  0.65916304     0.02400
C1537       C  0.03777167  0.70949097  0.63846856    -0.18100
C1538       C  0.02271206  0.68146912  0.61988826     0.02400
C1539       C  0.48551968  0.65584990  0.62142276     0.02400
C1540       C  0.46451473  0.65842294  0.64232638    -0.18100
H1541       H  0.43664072  0.63692431  0.64404989     0.04400
H1542       H  0.06674459  0.72834110  0.63749649     0.04400
C1543       C  0.30072196  0.82215189  0.66748687     0.02400
C1544       C  0.31386410  0.79756969  0.66596877     0.02400
C1545       C  0.33464830  0.79898143  0.64319804    -0.18100
C1546       C  0.34499619  0.82578598  0.62323370     0.02400
C1547       C  0.33240553  0.85058015  0.62528259     0.02400
C1548       C  0.30988784  0.84803792  0.64685161    -0.18100
H1549       H  0.29965410  0.86670099  0.64773509     0.04400
H1550       H  0.34415148  0.77980644  0.64166320     0.04400
C1551       C  0.01868699  0.70823273  0.83589242     0.02400
C1552       C  0.48059199  0.68450439  0.83546962     0.02400
C1553       C  0.46415892  0.65898784  0.85646462    -0.18100
C1554       C  0.48436335  0.65761064  0.87833447     0.02400
C1555       C  0.02153402  0.68391587  0.88018515     0.02400
C1556       C  0.03763984  0.70975585  0.85969229    -0.18100
H1557       H  0.06637800  0.72915388  0.86114642     0.04400
H1558       H  0.43537592  0.63954041  0.85550212     0.04400
C1559       C  0.28579876  0.81018410  0.84178534     0.02400
C1560       C  0.30054089  0.78648078  0.84246960     0.02400
C1561       C  0.32411620  0.78922834  0.86360476    -0.18100
C1562       C  0.33564044  0.81612015  0.88318500     0.02400
C1563       C  0.32334694  0.84103303  0.88169472     0.02400
C1564       C  0.30045125  0.83893147  0.86060719    -0.18100
H1565       H  0.29399994  0.86032394  0.85914498     0.04400
H1566       H  0.33597304  0.77190792  0.86355176     0.04400
C1567       C  0.19929111  0.51837631  0.83771111     0.02400
C1568       C  0.18527142  0.98049914  0.83788901     0.02400
C1569       C  0.16362673  0.95994642  0.85995128    -0.18100
C1570       C  0.15348068  0.97546746  0.88054357     0.02400
C1571       C  0.16712945  0.51306541  0.88041383     0.02400
C1572       C  0.19042778  0.53417754  0.85925784    -0.18100
H1573       H  0.20097795  0.56310684  0.85915360     0.04400
H1574       H  0.15228873  0.93087906  0.86007324     0.04400
C1575       C  0.20239639  0.52273572  0.66048237     0.02400
C1576       C  0.19221492  0.98541548  0.65802413     0.02400
C1577       C  0.17073938  0.96503765  0.63592772    -0.18100
C1578       C  0.15577673  0.97899331  0.61754435     0.02400
C1579       C  0.16362223  0.51492113  0.62102688     0.02400
C1580       C  0.18430573  0.53495799  0.64315787    -0.18100
H1581       H  0.18693813  0.56115788  0.64620753     0.04400
H1582       H  0.16412448  0.93719481  0.63389032     0.04400
C1583       C  0.16559706  0.83702205  0.72150620     0.45600
H1584       H  0.16698911  0.83754252  0.69899688    -0.03400
C1585       C  0.16059628  0.83563489  0.77398797     0.45700
H1586       H  0.15669362  0.83493050  0.79625711    -0.03400
C1587       C  0.12758120  0.80898916  0.73252212    -0.17100
C1588       C  0.19227254  0.82736928  0.73562342    -0.16900
C1589       C  0.17433426  0.87370679  0.73352809    -0.17200
C1590       C  0.12516791  0.80863842  0.76022018    -0.17200
C1591       C  0.18934257  0.82591792  0.76382506    -0.16800
C1592       C  0.17103688  0.87266455  0.76133075    -0.17100
C1593       C  0.16160110  0.92212841  0.71820144    -0.20200
C1594       C  0.18326543  0.90607953  0.71608126    -0.06700
C1595       C  0.21197962  0.92042154  0.69674963     0.14100
C1596       C  0.21620368  0.94819478  0.67890289    -0.20200
C1597       C  0.19329277  0.96287586  0.68057054    -0.06700
C1598       C  0.16651264  0.95050772  0.70113081     0.14100
C1599       C  0.14217293  0.96645742  0.70452564    -0.23600
H1600       H  0.13969544  0.91174867  0.73257942     0.15400
H1601       H  0.23673780  0.95778944  0.66307703     0.15400
C1602       C  0.23859307  0.90710598  0.69495682    -0.23500
H1603       H  0.12242744  0.95336575  0.72142852     0.05700
H1604       H  0.12668307  0.96301939  0.68562223     0.08900
H1605       H  0.15880178  0.99566165  0.70915160     0.08900
H1606       H  0.22509770  0.87917587  0.68718687     0.08900
H1607       H  0.25030946  0.90823848  0.71529276     0.08900
H1608       H  0.26130771  0.92390922  0.68080753     0.05600
C1609       C  0.21064115  0.92913734  0.78708872    -0.20200
C1610       C  0.17581593  0.90356431  0.77823609    -0.06700
C1611       C  0.14579139  0.90627384  0.78732770     0.14100
C1612       C  0.15149341  0.93571552  0.80308172    -0.20200
C1613       C  0.18562480  0.95948419  0.81397288    -0.06700
C1614       C  0.21562859  0.95571669  0.80618787     0.14100
C1615       C  0.25221250  0.97671640  0.81922172    -0.23600
H1616       H  0.23358864  0.92639068  0.78090590     0.15400
H1617       H  0.12830057  0.93784717  0.80962634     0.15400
C1618       C  0.10742133  0.87690053  0.78255952    -0.23500
H1619       H  0.26090638  0.95778190  0.82689079     0.05700
H1620       H  0.25179768  0.99229954  0.83690140     0.08900
H1621       H  0.27234858  0.49525941  0.80404432     0.08900
H1622       H  0.10317933  0.85163050  0.79223662     0.08900
H1623       H  0.10178271  0.87272415  0.76065788     0.08900
H1624       H  0.08737093  0.88328413  0.79158338     0.05600
C1625       C  0.25034053  0.79241908  0.79639362    -0.20200
C1626       C  0.25644752  0.80772444  0.82258701    -0.06700
C1627       C  0.23383470  0.82201197  0.83022010     0.14100
C1628       C  0.21635058  0.83101791  0.81017060    -0.20200
C1629       C  0.21092327  0.81673548  0.78380392    -0.06700
C1630       C  0.22436176  0.79273417  0.77871750     0.14100
C1631       C  0.20929759  0.76405886  0.75718590    -0.23600
H1632       H  0.26379315  0.77832853  0.78957358     0.15400
H1633       H  0.20531693  0.84779706  0.81623429     0.15400
C1634       C  0.22411892  0.82472977  0.85933244    -0.23500
H1635       H  0.19973923  0.73724367  0.76684057     0.05700
H1636       H  0.23068016  0.76873650  0.74211925     0.08900
H1637       H  0.18546996  0.76239563  0.74692284     0.08900
H1638       H  0.23504748  0.85344572  0.86492229     0.08900
H1639       H  0.23363041  0.81143853  0.87387657     0.08900
H1640       H  0.19412687  0.81042415  0.86155034     0.05600
C1641       C  0.03365454  0.75163543  0.79632988    -0.20200
C1642       C  0.04129233  0.72859545  0.81182889    -0.06700
C1643       C  0.07422954  0.72887590  0.80662982     0.14100
C1644       C  0.10144978  0.75708652  0.79158160    -0.20200
C1645       C  0.09441097  0.78068162  0.77658697    -0.06700
C1646       C  0.05913980  0.77625390  0.77753160     0.14100
C1647       C  0.04751205  0.79700823  0.75951980    -0.23600
H1648       H  0.00841297  0.75140046  0.79921674     0.15400
H1649       H  0.12778705  0.75905035  0.78998456     0.15400
C1650       C  0.08129171  0.69931537  0.81603169    -0.23500
H1651       H  0.03708002  0.81146148  0.77196913     0.05700
H1652       H  0.02591094  0.77791221  0.74586709     0.08900
H1653       H  0.06962070  0.81679724  0.74642440     0.08900
H1654       H  0.05684272  0.67589202  0.82492593     0.08900
H1655       H  0.10359295  0.71015412  0.83108685     0.08900
H1656       H  0.08945489  0.68891729  0.79834557     0.05600
C1657       C  0.23761799  0.80131368  0.67987074    -0.20200
C1658       C  0.27386012  0.81963968  0.68779159    -0.06700
C1659       C  0.28371269  0.84084732  0.71146939     0.14100
C1660       C  0.25673086  0.84288895  0.72674601    -0.20200
C1661       C  0.21988865  0.82334062  0.71927191    -0.06700
C1662       C  0.21049075  0.80160881  0.69559106     0.14100
C1663       C  0.17236117  0.77715077  0.68626140    -0.23600
H1664       H  0.23030329  0.78675466  0.66083403     0.15400
H1665       H  0.26448476  0.86016205  0.74439803     0.15400
C1666       C  0.32273486  0.86211304  0.72002626    -0.23500
H1667       H  0.16764332  0.74935419  0.68355080     0.05700
H1668       H  0.16769255  0.78705669  0.66664848     0.08900
H1669       H  0.15249802  0.77515196  0.70115519     0.08900
H1670       H  0.33912014  0.88171828  0.70380467     0.08900
H1671       H  0.33333576  0.84346120  0.72369421     0.08900
H1672       H  0.32589862  0.87734039  0.73900070     0.05600
C1673       C  0.05272749  0.72311915  0.70004613    -0.20200
C1674       C  0.03899159  0.73741709  0.68094545    -0.06700
C1675       C  0.05404234  0.77514220  0.67891064     0.14100
C1676       C  0.08289870  0.79780547  0.69601973    -0.20200
C1677       C  0.09729877  0.78348429  0.71475370    -0.06700
C1678       C  0.08226451  0.74545957  0.71632342     0.14100
C1679       C  0.09842850  0.72723073  0.73273170    -0.23600
H1680       H  0.04216117  0.69416713  0.70061253     0.15400
H1681       H  0.09445728  0.82683632  0.69469293     0.15400
C1682       C  0.03999902  0.79123928  0.65837429    -0.23500
H1683       H  0.10523951  0.71083582  0.71909514     0.05700
H1684       H  0.07843233  0.70893722  0.74806836     0.08900
H1685       H  0.12381840  0.74665405  0.74290247     0.08900
H1686       H  0.01069369  0.78087626  0.66214286     0.08900
H1687       H  0.04368909  0.78369810  0.63755460     0.08900
H1688       H  0.05447525  0.82117999  0.65955520     0.05600
C1689       C  0.38811329  0.81099333  0.94426889    -0.20200
C1690       C  0.42177224  0.84259398  0.94026279    -0.06700
C1691       C  0.42782655  0.86283130  0.91597750     0.14100
C1692       C  0.39988340  0.85170557  0.89701760    -0.20200
C1693       C  0.36537831  0.82206739  0.90206646    -0.06700
C1694       C  0.35967957  0.80065084  0.92548935     0.14100
C1695       C  0.32352542  0.76747284  0.93089924    -0.23600
H1696       H  0.38351695  0.79531561  0.96271428     0.15400
H1697       H  0.40466096  0.86724491  0.87846177     0.15400
C1698       C  0.46318320  0.89644833  0.90917399    -0.23500
H1699       H  0.32341451  0.75415173  0.95034886     0.05700
H1700       H  0.31712405  0.74777895  0.91427216     0.08900
H1701       H  0.30201888  0.77480692  0.93199230     0.08900
H1702       H  0.48419558  0.90353578  0.92478466     0.08900
H1703       H  0.45852827  0.91964410  0.90681692     0.08900
H1704       H  0.47400102  0.89252577  0.88972892     0.05600
C1705       C  0.13697519  0.94795855  0.92671337    -0.20200
C1706       C  0.12595565  0.95146457  0.90065151    -0.06700
C1707       C  0.08872264  0.93283051  0.89418834     0.14100
C1708       C  0.06319962  0.91532752  0.91499689    -0.20200
C1709       C  0.07408279  0.91429968  0.94166629    -0.06700
C1710       C  0.11136879  0.92834478  0.94710595     0.14100
C1711       C  0.12510924  0.92277139  0.97376719    -0.23600
H1712       H  0.16567529  0.96069294  0.93117642     0.15400
H1713       H  0.03464190  0.90250668  0.91043505     0.15400
C1714       C  0.07589833  0.93157648  0.86547426    -0.23500
H1715       H  0.13951089  0.90753004  0.97022129     0.05700
H1716       H  0.10302789  0.90717599  0.98862714     0.08900
H1717       H  0.14470708  0.94930385  0.98258852     0.08900
H1718       H  0.08626442  0.91770026  0.85231279     0.08900
H1719       H  0.08585925  0.95924161  0.85744879     0.08900
H1720       H  0.04583592  0.91652027  0.86422111     0.05600
C1721       C  0.13603129  0.96781149  0.56917562    -0.20200
C1722       C  0.12965545  0.95540999  0.59618899    -0.06700
C1723       C  0.09589337  0.92431478  0.60277644     0.14100
C1724       C  0.06972486  0.90731382  0.58228584    -0.20200
C1725       C  0.07491557  0.92279010  0.55630091    -0.06700
C1726       C  0.10794763  0.95445462  0.55016352     0.14100
C1727       C  0.11268778  0.97626431  0.52477038    -0.23600
H1728       H  0.16204197  0.49060434  0.56367558     0.15400
H1729       H  0.04406780  0.88336586  0.58708505     0.15400
C1730       C  0.08620451  0.91013542  0.63148766    -0.23500
H1731       H  0.14117229  0.49832829  0.52192733     0.05700
H1732       H  0.09532443  0.98874428  0.52624829     0.08900
H1733       H  0.10433162  0.45892415  0.50666180     0.08900
H1734       H  0.08903958  0.93196440  0.64513764     0.08900
H1735       H  0.10388295  0.89964510  0.63853671     0.08900
H1736       H  0.05776809  0.88756241  0.63310019     0.05600
C1737       C  0.35909565  0.82685865  0.57389718    -0.20200
C1738       C  0.37035245  0.82901316  0.60099432    -0.06700
C1739       C  0.40668486  0.83830466  0.60631192     0.14100
C1740       C  0.43108544  0.84707676  0.58450222    -0.20200
C1741       C  0.42022975  0.84724708  0.55770150    -0.06700
C1742       C  0.38380242  0.83663765  0.55221722     0.14100
C1743       C  0.37115641  0.83596905  0.52355923    -0.23600
H1744       H  0.33109142  0.81880026  0.56977709     0.15400
H1745       H  0.45910429  0.85487655  0.58840877     0.15400
C1746       C  0.42035462  0.84026003  0.63484994    -0.23500
H1747       H  0.34176332  0.82692837  0.52284410     0.05700
H1748       H  0.37600271  0.81715685  0.51116815     0.08900
H1749       H  0.38626546  0.86345763  0.51446727     0.08900
H1750       H  0.40666190  0.81305448  0.64437615     0.08900
H1751       H  0.41523763  0.85879490  0.64729111     0.08900
H1752       H  0.44996621  0.85029301  0.63513566     0.05600
C1753       C  0.43467003  0.60174633  0.55914342    -0.20200
C1754       C  0.44534552  0.57563583  0.55818023    -0.06700
C1755       C  0.46827385  0.57517378  0.57884270     0.14100
C1756       C  0.47888381  0.60012431  0.60016587    -0.20200
C1757       C  0.46852443  0.62650175  0.60089232    -0.06700
C1758       C  0.44648614  0.62752380  0.57985827     0.14100
C1759       C  0.43583822  0.65610081  0.57871687    -0.23600
H1760       H  0.41737827  0.60236752  0.54328202     0.15400
H1761       H  0.99641043  0.59987448  0.61597487     0.15400
C1762       C  0.48150334  0.54843052  0.57884892    -0.23500
H1763       H  0.42203666  0.65524997  0.55939314     0.05700
H1764       H  0.46008935  0.68339312  0.58051130     0.08900
H1765       H  0.41651491  0.65117417  0.59535753     0.08900
H1766       H  0.49892468  0.55296062  0.56076227     0.08900
H1767       H  0.45804517  0.52052721  0.57869832     0.08900
H1768       H  0.99797602  0.55120677  0.59709216     0.05600
C1769       C  0.42588490  0.59452834  0.93527032    -0.20200
C1770       C  0.44278789  0.57382543  0.93938442    -0.06700
C1771       C  0.47157788  0.57926445  0.92183649     0.14100
C1772       C  0.48190969  0.60456602  0.90070161    -0.20200
C1773       C  0.46711461  0.62724350  0.89812756    -0.06700
C1774       C  0.43815233  0.62170853  0.91537540     0.14100
C1775       C  0.92043460  0.64465834  0.91436007    -0.23600
H1776       H  0.40378660  0.59062911  0.94848522     0.15400
H1777       H  0.50297894  0.60784810  0.88665564     0.15400
C1778       C  0.49224595  0.55938598  0.92515406    -0.23500
H1779       H  0.92205826  0.65654951  0.93467277     0.05700
H1780       H  0.89144638  0.62758287  0.90885428     0.08900
H1781       H  0.93338637  0.66735700  0.89970284     0.08900
H1782       H  0.47368765  0.52999216  0.92369614     0.08900
H1783       H  0.50595716  0.56577415  0.94510983     0.08900
H1784       H  0.51355134  0.56716878  0.90930587     0.05600
C1785       C  0.36621818  0.90283147  0.89712826    -0.20200
C1786       C  0.33459697  0.86988401  0.90212243    -0.06700
C1787       C  0.31575554  0.86426623  0.92699965     0.14100
C1788       C  0.33007938  0.89134559  0.94679115    -0.20200
C1789       C  0.36296972  0.92343413  0.94239309    -0.06700
C1790       C  0.38106693  0.92936395  0.91718379     0.14100
C1791       C  0.41578927  0.96381698  0.91121629    -0.23600
H1792       H  0.37999682  0.90725538  0.87775086     0.15400
H1793       H  0.31588822  0.88705844  0.96598201     0.15400
C1794       C  0.28058051  0.83022762  0.93325653    -0.23500
H1795       H  0.42559906  0.96452625  0.89017042     0.05700
H1796       H  0.43716162  0.96629831  0.92533888     0.08900
H1797       H  0.41137254  0.98712929  0.91366973     0.08900
H1798       H  0.28385228  0.81707202  0.95167726     0.08900
H1799       H  0.25906889  0.83709712  0.93720467     0.08900
H1800       H  0.27131932  0.81051022  0.91643395     0.05600
C1801       C  0.31881354  0.87442161  0.58398477    -0.20200
C1802       C  0.34302082  0.87968528  0.60503381    -0.06700
C1803       C  0.37823740  0.91011450  0.60459080     0.14100
C1804       C  0.38931019  0.93323040  0.58205669    -0.20200
C1805       C  0.36560000  0.92741421  0.56051495    -0.06700
C1806       C  0.32973796  0.89791830  0.56155640     0.14100
C1807       C  0.30367463  0.88989777  0.53846753    -0.23600
H1808       H  0.29189133  0.85082249  0.58451882     0.15400
H1809       H  0.41659465  0.95620586  0.58144969     0.15400
C1810       C  0.40464534  0.91897198  0.62753382    -0.23500
H1811       H  0.27758353  0.86452930  0.54205402     0.05700
H1812       H  0.31572119  0.88682748  0.51934123     0.08900
H1813       H  0.29756635  0.91211032  0.53610093     0.10300
H1814       H  0.42887495  0.91817069  0.62013391     0.08900
H1815       H  0.39276173  0.90015188  0.64501234     0.08900
H1816       H  0.41330835  0.94654288  0.63504857     0.05600
C1817       C  0.08518974  0.65574501  0.58382033    -0.20200
C1818       C  0.07649682  0.65824706  0.55675137    -0.06700
C1819       C  0.05445819  0.67327376  0.55078486     0.14100
C1820       C  0.04005075  0.68391266  0.57191707    -0.20200
C1821       C  0.04611800  0.67862445  0.59897781    -0.06700
C1822       C  0.07001092  0.66565127  0.60517257     0.14100
C1823       C  0.57788748  0.66044639  0.63414212    -0.23600
H1824       H  0.10222060  0.64421240  0.58827693     0.15400
H1825       H  0.02210207  0.69433077  0.56737806     0.15400
C1826       C  0.04557817  0.67749243  0.52210695    -0.23500
H1827       H  0.59628342  0.64909081  0.63526245     0.05700
H1828       H  0.55227571  0.64159888  0.64488283     0.08900
H1829       H  0.59117168  0.68678586  0.64475545     0.08900
H1830       H  0.03092049  0.65055927  0.51239310     0.08900
H1831       H  0.07130294  0.69531744  0.51111223     0.08900
H1832       H  0.02811240  0.68990414  0.52089520     0.05600
C1833       C  0.05569076  0.67379474  0.94831540    -0.20200
C1834       C  0.07658940  0.65831893  0.94080644    -0.06700
C1835       C  0.08418484  0.65683536  0.91312877     0.14100
C1836       C  0.06835711  0.66852785  0.89352345    -0.20200
C1837       C  0.04506799  0.68142341  0.90119286    -0.06700
C1838       C  0.04065000  0.68634259  0.92888429     0.14100
C1839       C  0.02036822  0.70496811  0.93791050    -0.23600
H1840       H  0.05027954  0.67529103  0.96937335     0.15400
H1841       H  0.07199105  0.66511616  0.87218388     0.15400
C1842       C  0.10731229  0.64121148  0.90430593    -0.23500
H1843       H  0.01994476  0.70692825  0.96038775     0.05700
H1844       H  0.49201241  0.69018234  0.93087261     0.08900
H1845       H  0.03374613  0.73274392  0.92929652     0.08900
H1846       H  0.09483586  0.61279618  0.91134597     0.08900
H1847       H  0.13478289  0.65706116  0.91320701     0.08900
H1848       H  0.11020791  0.64168666  0.88185559     0.05600
C1849       C  0.12080634  0.52548559  0.90054137    -0.20200
C1850       C  0.15589653  0.53044546  0.90146639    -0.06700
C1851       C  0.17954671  0.55166299  0.92227859     0.14100
C1852       C  0.16753049  0.56745657  0.94164339    -0.20200
C1853       C  0.13225439  0.56240920  0.94091213    -0.06700
C1854       C  0.10859305  0.54120302  0.91977820     0.14100
C1855       C  0.07093278  0.53543850  0.91574395    -0.23600
H1856       H  0.10290313  0.50976639  0.88426594     0.15400
H1857       H  0.18572417  0.58351112  0.95773005     0.15400
C1858       C  0.21723868  0.55711959  0.92433065    -0.23500
H1859       H  0.06870979  0.54406474  0.89485997     0.05700
H1860       H  0.06366863  0.55092968  0.92971976     0.08900
H1861       H  0.05071302  0.50629572  0.91818272     0.08900
H1862       H  0.23310729  0.57105359  0.90581369     0.08900
H1863       H  0.21575142  0.53055538  0.92644739     0.08900
H1864       H  0.23194745  0.57379481  0.94216321     0.05600
C1865       C  0.11781837  0.52735859  0.60012578    -0.20200
C1866       C  0.15337641  0.53359821  0.60044372    -0.06700
C1867       C  0.17827927  0.55585503  0.58013851     0.14100
C1868       C  0.16694599  0.57123039  0.56008422    -0.20200
C1869       C  0.13110902  0.56423590  0.55911187    -0.06700
C1870       C  0.10623329  0.54228336  0.57965298     0.14100
C1871       C  0.06780203  0.53510093  0.58062494    -0.23600
H1872       H  0.09892957  0.51018175  0.61570750     0.15400
H1873       H  0.18609574  0.58781424  0.54440744     0.15400
C1874       C  0.21629641  0.56204296  0.57780348    -0.23500
H1875       H  0.05306646  0.51924372  0.59896214     0.05700
H1876       H  0.05264683  0.51930900  0.56262098     0.08900
H1877       H  0.06782552  0.56107461  0.58112950     0.08900
H1878       H  0.22218340  0.54641767  0.59289073     0.08900
H1879       H  0.23613298  0.59121138  0.58030289     0.08900
H1880       H  0.22022913  0.55354126  0.55739153     0.05600
C1881       C  0.28577866  0.71804259  0.71493545    -0.20200
C1882       C  0.32011068  0.72584739  0.72407592    -0.06700
C1883       C  0.35104089  0.75812431  0.71541879     0.14100
C1884       C  0.34662224  0.78303374  0.69981804    -0.20200
C1885       C  0.31279418  0.77439833  0.68899103    -0.06700
C1886       C  0.28199429  0.74092160  0.69617405     0.14100
C1887       C  0.24579036  0.72693801  0.68274157    -0.23600
H1888       H  0.26225060  0.69248989  0.72061294     0.15400
H1889       H  0.37045506  0.80794303  0.69342654     0.15400
C1890       C  0.38894676  0.76500599  0.72000798    -0.23500
H1891       H  0.23673492  0.69968154  0.67435245     0.05700
H1892       H  0.24695964  0.74411851  0.66550758     0.08900
H1893       H  0.22549121  0.72499597  0.69786163     0.08900
H1894       H  0.39262847  0.74478684  0.70863440     0.08900
H1895       H  0.39406654  0.76314740  0.74174016     0.08900
H1896       H  0.40984200  0.79213505  0.71255594     0.05600
C1897       C  0.33658638  0.75631308  0.78481476    -0.20200
C1898       C  0.31375508  0.71876250  0.78565082    -0.06700
C1899       C  0.28284291  0.70409537  0.80290148     0.14100
C1900       C  0.27695595  0.72714166  0.81985361    -0.20200
C1901       C  0.30070497  0.76454489  0.81944985    -0.06700
C1902       C  0.33026887  0.77934840  0.80103964     0.14100
C1903       C  0.35669020  0.81935886  0.79875453    -0.23600
H1904       H  0.36023278  0.76807150  0.77198053     0.15400
H1905       H  0.25465371  0.71585795  0.83429403     0.15400
C1906       C  0.25601392  0.66430374  0.80367414    -0.23500
H1907       H  0.38422053  0.82494860  0.80446053     0.05700
H1908       H  0.34946327  0.83581978  0.81185136     0.08900
H1909       H  0.35741118  0.82832538  0.77743459     0.08900
H1910       H  0.26903828  0.64962336  0.81217643     0.08900
H1911       H  0.24598142  0.65469065  0.78286093     0.08900
H1912       H  0.23223190  0.65793197  0.81675332     0.05600
C1913       C  0.40957322  0.70134852  0.80401758    -0.20200
C1914       C  0.39714699  0.67662570  0.78253731    -0.06700
C1915       C  0.41395811  0.65560198  0.77774810     0.14100
C1916       C  0.44351203  0.66110105  0.79381026    -0.20200
C1917       C  0.45587799  0.68597190  0.81509460    -0.06700
C1918       C  0.43855606  0.70616380  0.82037228     0.14100
C1919       C  0.45020592  0.73229159  0.84369976    -0.23600
H1920       H  0.39670168  0.71729313  0.80782548     0.15400
H1921       H  0.45574551  0.64444232  0.79067670     0.15400
C1922       C  0.40052962  0.62580992  0.75708198    -0.23500
H1923       H  0.43402210  0.74608822  0.84482722     0.05700
H1924       H  0.47916309  0.75326267  0.84125005     0.08900
H1925       H  0.44664140  0.71768570  0.86318081     0.08900
H1926       H  0.42176100  0.63258718  0.74136027     0.08900
H1927       H  0.37525367  0.62076094  0.74702066     0.08900
H1928       H  0.39462149  0.60019485  0.76726591     0.05600
C1929       C  0.38892887  0.66757325  0.69297996    -0.20200
C1930       C  0.39833156  0.68409244  0.71851148    -0.06700
C1931       C  0.43581889  0.70763009  0.72344199     0.14100
C1932       C  0.46179080  0.70702864  0.70588661    -0.20200
C1933       C  0.45209248  0.69070421  0.68002579    -0.06700
C1934       C  0.41504009  0.67577733  0.67283428     0.14100
C1935       C  0.40238859  0.67306836  0.64399044    -0.23600
H1936       H  0.36084360  0.65031924  0.68746928     0.15400
H1937       H  0.48937574  0.72098246  0.71261175     0.15400
C1938       C  0.44973223  0.73618749  0.74496504    -0.23500
H1939       H  0.38550710  0.68607593  0.64214849     0.05700
H1940       H  0.38562115  0.64432071  0.63807230     0.08900
H1941       H  0.42554991  0.68816693  0.62990187     0.08900
H1942       H  0.46683907  0.76298632  0.73522401     0.08900
H1943       H  0.42785990  0.73793807  0.75560797     0.08900
H1944       H  0.46617835  0.73109042  0.75984424     0.05600
C1945       C  0.23854135  0.58287942  0.77732059    -0.20200
C1946       C  0.27596034  0.59947403  0.78264025    -0.06700
C1947       C  0.28754046  0.58636241  0.80479703     0.14100
C1948       C  0.26163139  0.55936568  0.82178712    -0.20200
C1949       C  0.22451584  0.54292196  0.81648721    -0.06700
C1950       C  0.21276290  0.55452301  0.79373804     0.14100
C1951       C  0.17329288  0.53827380  0.78668532    -0.23600
H1952       H  0.22922623  0.59256984  0.76054423     0.15400
H1953       H  0.27051951  0.55160747  0.83990192     0.15400
C1954       C  0.32688367  0.59886585  0.81032602    -0.23500
H1955       H  0.16554995  0.55948523  0.78740828     0.05700
H1956       H  0.15521003  0.51610258  0.80071368     0.08900
H1957       H  0.16873792  0.02709569  0.76582561     0.08900
H1958       H  0.34107820  0.62638049  0.81879635     0.08900
H1959       H  0.34039156  0.59769790  0.79149044     0.08900
H1960       H  0.32989184  0.58122460  0.82548061     0.05600
C1961       C  0.24214849  0.54036126  0.70374068    -0.20200
C1962       C  0.23119867  0.55029468  0.67963985    -0.06700
C1963       C  0.24907980  0.58819990  0.67390242     0.14100
C1964       C  0.26725564  0.61309432  0.69453842    -0.20200
C1965       C  0.27819205  0.60319932  0.71829281    -0.06700
C1966       C  0.26820052  0.56630521  0.72128159     0.14100
C1967       C  0.28656328  0.55331173  0.74067821    -0.23600
H1968       H  0.23275526  0.51271226  0.70885543     0.15400
H1969       H  0.27561580  0.64112734  0.69063810     0.15400
C1970       C  0.25496827  0.60414978  0.64566240    -0.23500
H1971       H  0.29660452  0.53763042  0.72934486     0.05700
H1972       H  0.26703342  0.53545558  0.75644884     0.08900
H1973       H  0.31059681  0.57582941  0.75024044     0.08900
H1974       H  0.23922065  0.61818896  0.64282053     0.08900
H1975       H  0.24839049  0.58364415  0.62983557     0.08900
H1976       H  0.28417937  0.62418312  0.64260457     0.05600
C1977       C  0.83062727  0.16674919  0.27867898     0.45600
H1978       H  0.83042360  0.16623304  0.30114545    -0.03400
C1979       C  0.83121657  0.17077341  0.22626771     0.45700
H1980       H  0.83143650  0.17403827  0.20398150    -0.03400
C1981       C  0.80214113  0.13108196  0.26552491    -0.17100
C1982       C  0.82242251  0.19580148  0.26778887    -0.16900
C1983       C  0.86713555  0.17455720  0.26559436    -0.17200
C1984       C  0.80246575  0.13298471  0.23740122    -0.17200
C1985       C  0.82369025  0.19826102  0.24010549    -0.16800
C1986       C  0.86776037  0.17763719  0.23761329    -0.17100
O1987       O  0.64483633  0.11038103  0.02601404    -0.71600
O1988       O  0.61905099  0.15674846  0.47156222    -0.71900
O1989       O  0.61931306  0.15617940  0.02651576    -0.71700
O1990       O  0.64474462  0.11077042  0.47121163    -0.71700
O1991       O  0.59033032  0.06443345  0.47268098    -0.71700
O1992       O  0.56373769  0.11153134  0.02550891    -0.71700
O1993       O  0.56448226  0.11035279  0.47112063    -0.71600
O1994       O  0.58934678  0.06595425  0.02741750    -0.71800
V1995       V  0.63096170  0.13264935  0.49880462     1.35200
V1996       V  0.57807243  0.08893831  0.49912137     1.35200
C1997       C  0.62121301  0.08081848  0.03663530     0.77600
C1998       C  0.58732107  0.14117116  0.46199348     0.77700
C1999       C  0.58710428  0.14142879  0.03535044     0.77500
C2000       C  0.62182005  0.07991715  0.46236695     0.77500
O2001       O  0.91029316  0.46341275  0.02765570    -0.71600
O2002       O  0.94787754  0.03419733  0.47162010    -0.71900
O2003       O  0.94902740  0.03526960  0.02639960    -0.71700
O2004       O  0.90931054  0.46212886  0.47289138    -0.71700
O2005       O  0.85907480  0.46365820  0.47369490    -0.71700
O2006       O  0.89957526  0.03808326  0.02647957    -0.71700
O2007       O  0.89792034  0.03597688  0.47180412    -0.71600
O2008       O  0.86057921  0.46591636  0.02808338    -0.71800
V2009       V  0.92815297  0.49877678  0.99962541     1.35200
V2010       V  0.88027569  0.50091564  0.49998923     1.35200
C2011       C  0.87917467  0.45297854  0.03758732     0.77600
C2012       C  0.92910925  0.04685039  0.46183213     0.77700
C2013       C  0.93085639  0.04863626  0.03603917     0.77500
C2014       C  0.87762938  0.45070921  0.46401335     0.77500
O2015       O  0.96141138  0.38743124  0.47105968    -0.71600
O2016       O  0.53365723  0.42545106  0.02528883    -0.71900
O2017       O  0.53404416  0.42181022  0.47096845    -0.71700
O2018       O  0.96074786  0.39028573  0.02545811    -0.71700
O2019       O  0.95925874  0.33877785  0.02790588    -0.71700
O2020       O  0.53332197  0.37072384  0.47393536    -0.71700
O2021       O  0.53208853  0.37401867  0.02868640    -0.71600
O2022       O  0.95992513  0.33595244  0.47309453    -0.71800
V2023       V  0.99741075  0.40517463  0.49827824     1.35200
V2024       V  0.99612873  0.35579597  0.00084053     1.35200
C2025       C  0.94878658  0.35565520  0.46242002     0.77600
C2026       C  0.54543807  0.40654500  0.03609946     0.77700
C2027       C  0.54624824  0.40172612  0.46328424     0.77500
C2028       C  0.94768031  0.35916853  0.03596157     0.77500
C2029       C  0.97864900  0.18786900  0.16071178     0.02400
C2030       C  0.51684233  0.21275370  0.15916290     0.02400
C2031       C  0.53777167  0.20949106  0.13846844    -0.18100
C2032       C  0.52271203  0.18146904  0.11988826     0.02400
C2033       C  0.98551923  0.15584934  0.12142300     0.02400
C2034       C  0.96451420  0.15842237  0.14232660    -0.18100
H2035       H  0.93664024  0.13692375  0.14405009     0.04400
H2036       H  0.56674454  0.22834119  0.13749631     0.04400
C2037       C  0.80072225  0.32215185  0.16748709     0.02400
C2038       C  0.81386428  0.29756956  0.16596906     0.02400
C2039       C  0.83464847  0.29898115  0.14319835    -0.18100
C2040       C  0.84499641  0.32578562  0.12323393     0.02400
C2041       C  0.83240590  0.35057991  0.12528279     0.02400
C2042       C  0.80988823  0.34803784  0.14685179    -0.18100
H2043       H  0.79965459  0.36670098  0.14773520     0.04400
H2044       H  0.84415155  0.27980608  0.14166357     0.04400
C2045       C  0.51868737  0.20823275  0.33589221     0.02400
C2046       C  0.98059193  0.18450449  0.33546988     0.02400
C2047       C  0.96415899  0.15898794  0.35646490    -0.18100
C2048       C  0.98436358  0.15761079  0.37833468     0.02400
C2049       C  0.52153455  0.18391600  0.38018495     0.02400
C2050       C  0.53764034  0.20975584  0.35969201    -0.18100
H2051       H  0.56637855  0.22915379  0.36114604     0.04400
H2052       H  0.93537601  0.13954049  0.35550248     0.04400
C2053       C  0.78579823  0.31018390  0.34178558     0.02400
C2054       C  0.80054003  0.28648031  0.34246997     0.02400
C2055       C  0.82411515  0.28922766  0.36360521    -0.18100
C2056       C  0.83563962  0.31611959  0.38318536     0.02400
C2057       C  0.82334649  0.34103277  0.38169495     0.02400
C2058       C  0.80045091  0.33893139  0.36060736    -0.18100
H2059       H  0.79399988  0.36032399  0.35914506     0.04400
H2060       H  0.83597172  0.27190702  0.36355230     0.04400
C2061       C  0.69929071  0.01837600  0.33771124     0.02400
C2062       C  0.68527134  0.48049914  0.33788892     0.02400
C2063       C  0.66362663  0.45994627  0.35995111    -0.18100
C2064       C  0.65348042  0.47546710  0.38054344     0.02400
C2065       C  0.66712937  0.01306513  0.38041408     0.02400
C2066       C  0.69042766  0.03417726  0.35925809    -0.18100
H2067       H  0.70097799  0.06310658  0.35915393     0.04400
H2068       H  0.65228875  0.43087890  0.36007299     0.04400
C2069       C  0.70239678  0.02273584  0.16048230     0.02400
C2070       C  0.69221557  0.48541578  0.15802387     0.02400
C2071       C  0.67074008  0.46503796  0.13592744    -0.18100
C2072       C  0.65577745  0.47899365  0.11754408     0.02400
C2073       C  0.66362283  0.01492132  0.12102670     0.02400
C2074       C  0.68430629  0.03495818  0.14315770    -0.18100
H2075       H  0.68693875  0.06115811  0.14620731     0.04400
H2076       H  0.66412517  0.43719513  0.13389005     0.04400
C2077       C  0.66559718  0.33702228  0.22150609     0.45600
H2078       H  0.66698926  0.33754276  0.19899677    -0.03400
C2079       C  0.66059631  0.33563511  0.27398783     0.45700
H2080       H  0.65669362  0.33493071  0.29625698    -0.03400
C2081       C  0.62758128  0.30898941  0.23252195    -0.17100
C2082       C  0.69227264  0.32736949  0.23562334    -0.16900
C2083       C  0.67433436  0.37370702  0.23352796    -0.17200
C2084       C  0.62516798  0.30863865  0.26022002    -0.17200
C2085       C  0.68934261  0.32591815  0.26382499    -0.16800
C2086       C  0.67103693  0.37266477  0.26133062    -0.17100
C2087       C  0.66160146  0.42212882  0.21820126    -0.20200
C2088       C  0.68326568  0.40607979  0.21608112    -0.06700
C2089       C  0.71197987  0.42042166  0.19674949     0.14100
C2090       C  0.71620407  0.44819493  0.17890270    -0.20200
C2091       C  0.69329328  0.46287616  0.18057032    -0.06700
C2092       C  0.66651315  0.45050816  0.20113058     0.14100
C2093       C  0.64217359  0.46645803  0.20452538    -0.23600
H2094       H  0.63969583  0.41174921  0.23257921     0.15400
H2095       H  0.73673817  0.45778946  0.16307685     0.15400
C2096       C  0.73859321  0.40710597  0.19495669    -0.23500
H2097       H  0.62242805  0.45336643  0.22142824     0.05700
H2098       H  0.62668378  0.46302007  0.18562195     0.08900
H2099       H  0.65880254  0.49566224  0.20915135     0.08900
H2100       H  0.72509779  0.37917588  0.18718671     0.08900
H2101       H  0.75030953  0.40823838  0.21529266     0.08900
H2102       H  0.76130792  0.42390918  0.18080745     0.05600
C2103       C  0.71064120  0.42913716  0.28708899    -0.20200
C2104       C  0.67581603  0.40356452  0.27823597    -0.06700
C2105       C  0.64579155  0.40627433  0.28732732     0.14100
C2106       C  0.65149362  0.43571609  0.30308126    -0.20200
C2107       C  0.68562491  0.45948438  0.31397275    -0.06700
C2108       C  0.71562858  0.45571647  0.30618817     0.14100
C2109       C  0.75221222  0.47671566  0.31922251    -0.23600
H2110       H  0.73358860  0.42639020  0.28090647     0.15400
H2111       H  0.62830085  0.43784797  0.30962568     0.15400
C2112       C  0.60742146  0.37690112  0.28255907    -0.23500
H2113       H  0.76090542  0.45778077  0.32689191     0.05700
H2114       H  0.75179730  0.49229898  0.33690203     0.08900
H2115       H  0.77234804  0.99525870  0.30404481     0.08900
H2116       H  0.60317928  0.35163110  0.29223631     0.08900
H2117       H  0.60178293  0.37272460  0.26065742     0.08900
H2118       H  0.58737110  0.38328492  0.29158275     0.05600
C2119       C  0.75034007  0.29241886  0.29639382    -0.20200
C2120       C  0.75644715  0.30772445  0.32258717    -0.06700
C2121       C  0.73383460  0.32201232  0.33022011     0.14100
C2122       C  0.71635062  0.33101836  0.31017054    -0.20200
C2123       C  0.71092322  0.31673570  0.28380391    -0.06700
C2124       C  0.72436146  0.29273415  0.27871762     0.14100
C2125       C  0.70929725  0.26405884  0.25718603    -0.23600
H2126       H  0.76379242  0.27832806  0.28957391     0.15400
H2127       H  0.70531717  0.34779768  0.31623409     0.15400
C2128       C  0.72411885  0.32473037  0.35933242    -0.23500
H2129       H  0.69973862  0.23724362  0.26684071     0.05700
H2130       H  0.73067984  0.26873632  0.24211946     0.08900
H2131       H  0.68546978  0.26239582  0.24692285     0.08900
H2132       H  0.73504765  0.35344638  0.36492218     0.08900
H2133       H  0.73363013  0.31143903  0.37387662     0.08900
H2134       H  0.69412681  0.31042500  0.36155029     0.05600
C2135       C  0.53365477  0.25163557  0.29632982    -0.20200
C2136       C  0.54129258  0.22859547  0.31182865    -0.06700
C2137       C  0.57422972  0.22887586  0.30662943     0.14100
C2138       C  0.60144994  0.25708656  0.29158124    -0.20200
C2139       C  0.59441110  0.28068176  0.27658678    -0.06700
C2140       C  0.55913997  0.27625409  0.27753154     0.14100
C2141       C  0.54751216  0.29700851  0.25951989    -0.23600
H2142       H  0.50841325  0.25140065  0.29921682     0.15400
H2143       H  0.62778720  0.25905037  0.28998411     0.15400
C2144       C  0.58129185  0.19931523  0.31603111    -0.23500
H2145       H  0.53708026  0.31146177  0.27196932     0.05700
H2146       H  0.52591098  0.27791254  0.24586721     0.08900
H2147       H  0.56962077  0.31679748  0.24642443     0.08900
H2148       H  0.55684289  0.17589191  0.32492542     0.08900
H2149       H  0.60359321  0.21015388  0.33108616     0.08900
H2150       H  0.58945482  0.18891714  0.29834487     0.05600
C2151       C  0.73761825  0.30131383  0.17987078    -0.20200
C2152       C  0.77386034  0.31963970  0.18779174    -0.06700
C2153       C  0.78371283  0.34084724  0.21146960     0.14100
C2154       C  0.75673096  0.34288892  0.22674611    -0.20200
C2155       C  0.71988879  0.32334077  0.21927190    -0.06700
C2156       C  0.71049097  0.30160903  0.19559101     0.14100
C2157       C  0.67236144  0.27715115  0.18626120    -0.23600
H2158       H  0.73030362  0.28675486  0.16083406     0.15400
H2159       H  0.76448483  0.36016199  0.24439818     0.15400
C2160       C  0.82273494  0.36211276  0.22002665    -0.23500
H2161       H  0.66764347  0.24935452  0.18355066     0.05700
H2162       H  0.66769304  0.28705714  0.16664823     0.08900
H2163       H  0.65249820  0.27515243  0.20115488     0.08900
H2164       H  0.83912042  0.38171802  0.20380512     0.08900
H2165       H  0.83333566  0.34346079  0.22369465     0.08900
H2166       H  0.82589863  0.37734007  0.23900109     0.05600
C2167       C  0.55272760  0.22311938  0.20004591    -0.20200
C2168       C  0.53899160  0.23741729  0.18094529    -0.06700
C2169       C  0.55404229  0.27514240  0.17891052     0.14100
C2170       C  0.58289866  0.29780568  0.19601961    -0.20200
C2171       C  0.59729883  0.28348454  0.21475352    -0.06700
C2172       C  0.58226464  0.24545982  0.21632317     0.14100
C2173       C  0.59842871  0.22723099  0.23273136    -0.23600
H2174       H  0.54216135  0.19416738  0.20061227     0.15400
H2175       H  0.59445717  0.32683653  0.19469284     0.15400
C2176       C  0.53999890  0.29123945  0.15837420    -0.23500
H2177       H  0.60523976  0.21083617  0.21909473     0.05700
H2178       H  0.57843258  0.20893740  0.24806801     0.08900
H2179       H  0.62381860  0.24665433  0.24290212     0.08900
H2180       H  0.51069356  0.28087638  0.16214276     0.08900
H2181       H  0.54368900  0.28369835  0.13755449     0.08900
H2182       H  0.55447508  0.32118017  0.15955515     0.05600
C2183       C  0.88811247  0.31099239  0.44426916    -0.20200
C2184       C  0.92177160  0.34259281  0.44026285    -0.06700
C2185       C  0.92782591  0.36283007  0.41597753     0.14100
C2186       C  0.89988268  0.35170448  0.39701775    -0.20200
C2187       C  0.86537746  0.32206664  0.40206678    -0.06700
C2188       C  0.85967863  0.30065018  0.42548974     0.14100
C2189       C  0.82352425  0.26747260  0.43089988    -0.23600
H2190       H  0.88351611  0.29531477  0.46271456     0.15400
H2191       H  0.90466029  0.36724375  0.37846185     0.15400
C2192       C  0.96318264  0.39644698  0.40917395    -0.23500
H2193       H  0.82341329  0.25415151  0.45034951     0.05700
H2194       H  0.81712235  0.24777852  0.41427286     0.08900
H2195       H  0.80201809  0.27480720  0.43199305     0.08900
H2196       H  0.98419502  0.40353437  0.42478459     0.08900
H2197       H  0.95852785  0.41964284  0.40681686     0.08900
H2198       H  0.97400035  0.39252429  0.38972886     0.05600
C2199       C  0.63697497  0.44795783  0.42671311    -0.20200
C2200       C  0.62595542  0.45146407  0.40065131    -0.06700
C2201       C  0.58872241  0.43283014  0.39418817     0.14100
C2202       C  0.56319938  0.41532727  0.41499675    -0.20200
C2203       C  0.57408261  0.41429935  0.44166612    -0.06700
C2204       C  0.61136857  0.42834412  0.44710570     0.14100
C2205       C  0.62510897  0.42277041  0.47376686    -0.23600
H2206       H  0.66567508  0.46069203  0.43117611     0.15400
H2207       H  0.53464168  0.40250664  0.41043496     0.15400
C2208       C  0.57589808  0.43157609  0.36547409    -0.23500
H2209       H  0.63951034  0.40752880  0.47022082     0.05700
H2210       H  0.60302762  0.40717512  0.48862683     0.08900
H2211       H  0.64470704  0.44930275  0.48258824     0.08900
H2212       H  0.58626412  0.41769980  0.35231264     0.08900
H2213       H  0.58585908  0.45924122  0.35744859     0.08900
H2214       H  0.54583567  0.41651995  0.36422096     0.05600
C2215       C  0.63603182  0.46781177  0.06917543    -0.20200
C2216       C  0.62965609  0.45541032  0.09618881    -0.06700
C2217       C  0.59589400  0.42431520  0.10277637     0.14100
C2218       C  0.56972540  0.40731421  0.08228584    -0.20200
C2219       C  0.57491601  0.42279043  0.05630091    -0.06700
C2220       C  0.60794805  0.45445492  0.05016342     0.14100
C2221       C  0.61268801  0.47626464  0.02477034    -0.23600
H2222       H  0.66204272  0.99060467  0.06367545     0.15400
H2223       H  0.54406833  0.38336627  0.08708513     0.15400
C2224       C  0.58620520  0.41013599  0.13148763    -0.23500
H2225       H  0.64117280  0.99832938  0.02192755     0.05700
H2226       H  0.59532476  0.48874470  0.02624846     0.08900
H2227       H  0.60433220  0.95892541  0.00666180     0.08900
H2228       H  0.58904038  0.43196506  0.14513756     0.08900
H2229       H  0.60388360  0.39964563  0.13853670     0.08900
H2230       H  0.55776876  0.38756303  0.13310024     0.05600
C2231       C  0.85909585  0.32685827  0.07389738    -0.20200
C2232       C  0.87035265  0.32901269  0.10099454    -0.06700
C2233       C  0.90668507  0.33830425  0.10631211     0.14100
C2234       C  0.93108573  0.34707665  0.08450242    -0.20200
C2235       C  0.92023008  0.34724714  0.05770170    -0.06700
C2236       C  0.88380271  0.33663752  0.05221743     0.14100
C2237       C  0.87115669  0.33596898  0.02355945    -0.23600
H2238       H  0.83109164  0.31879981  0.06977730     0.15400
H2239       H  0.95910461  0.35487651  0.08840897     0.15400
C2240       C  0.92035473  0.34025932  0.13485013    -0.23500
H2241       H  0.84176358  0.32692815  0.02284432     0.05700
H2242       H  0.87600316  0.31715693  0.01116831     0.08900
H2243       H  0.88626563  0.36345762  0.01446756     0.08900
H2244       H  0.90666203  0.31305363  0.14437614     0.08900
H2245       H  0.91523763  0.35879397  0.14729146     0.08900
H2246       H  0.94996634  0.35029234  0.13513588     0.05600
C2247       C  0.93466993  0.10174588  0.05914359    -0.20200
C2248       C  0.94534570  0.07563560  0.05818028    -0.06700
C2249       C  0.96827405  0.07517361  0.07884276     0.14100
C2250       C  0.97888370  0.10012394  0.10016604    -0.20200
C2251       C  0.96852407  0.12650120  0.10089256    -0.06700
C2252       C  0.94648577  0.12752320  0.07985851     0.14100
C2253       C  0.93583764  0.15610007  0.07871716    -0.23600
H2254       H  0.91737812  0.10236702  0.04328217     0.15400
H2255       H  0.49641055  0.09987433  0.11597505     0.15400
C2256       C  0.98150398  0.04843070  0.07884881    -0.23500
H2257       H  0.92203600  0.15524915  0.05939345     0.05700
H2258       H  0.96008871  0.18339244  0.08051155     0.08900
H2259       H  0.91651437  0.15117336  0.09535786     0.08900
H2260       H  0.99892540  0.05296114  0.06076216     0.08900
H2261       H  0.95804601  0.02052726  0.07869811     0.08900
H2262       H  0.49797658  0.05120690  0.09709225     0.05600
C2263       C  0.92588510  0.09452841  0.43527053    -0.20200
C2264       C  0.94278806  0.07382545  0.43938461    -0.06700
C2265       C  0.97157811  0.07926453  0.42183672     0.14100
C2266       C  0.98191012  0.10456626  0.40070188    -0.20200
C2267       C  0.96711494  0.12724369  0.39812783    -0.06700
C2268       C  0.93815262  0.12170867  0.41537564     0.14100
C2269       C  0.42043513  0.14465879  0.41435992    -0.23600
H2270       H  0.90378681  0.09062919  0.44848541     0.15400
H2271       H  0.00297942  0.10784843  0.38665602     0.15400
C2272       C  0.99224609  0.05938596  0.42515425    -0.23500
H2273       H  0.42205862  0.15654975  0.43467267     0.05700
H2274       H  0.39144696  0.12758349  0.40885393     0.08900
H2275       H  0.43338716  0.16735763  0.39970285     0.08900
H2276       H  0.97368771  0.02999214  0.42369624     0.08900
H2277       H  0.00595724  0.06577399  0.44511004     0.08900
H2278       H  0.01355149  0.06716876  0.40930608     0.05600
C2279       C  0.86621823  0.40283101  0.39712865    -0.20200
C2280       C  0.83459669  0.36988381  0.40212263    -0.06700
C2281       C  0.81575495  0.36426633  0.42699967     0.14100
C2282       C  0.83007878  0.39134576  0.44679112    -0.20200
C2283       C  0.86296940  0.42343405  0.44239324    -0.06700
C2284       C  0.88106699  0.42936353  0.41718413     0.14100
C2285       C  0.91578967  0.46381628  0.41121676    -0.23600
H2286       H  0.87999712  0.40725473  0.37775133     0.15400
H2287       H  0.81588735  0.38705883  0.46598185     0.15400
C2288       C  0.78057962  0.33022798  0.43325639    -0.23500
H2289       H  0.92559976  0.46452528  0.39017104     0.05700
H2290       H  0.93716170  0.46629747  0.42533965     0.08900
H2291       H  0.91137321  0.48712879  0.41366987     0.08900
H2292       H  0.78385091  0.31707234  0.45167729     0.08900
H2293       H  0.75906816  0.33709782  0.43720418     0.08900
H2294       H  0.77131849  0.31051049  0.41643388     0.05600
C2295       C  0.81881415  0.37442136  0.08398489    -0.20200
C2296       C  0.84302133  0.37968500  0.10503397    -0.06700
C2297       C  0.87823801  0.41011409  0.10459093     0.14100
C2298       C  0.88931085  0.43322991  0.08205679    -0.20200
C2299       C  0.86560073  0.42741382  0.06051504    -0.06700
C2300       C  0.82973867  0.39791793  0.06155646     0.14100
C2301       C  0.80367544  0.38989728  0.03846749    -0.23600
H2302       H  0.79189187  0.35082228  0.08451893     0.15400
H2303       H  0.91659540  0.45620537  0.08144979     0.15400
C2304       C  0.90464595  0.41897144  0.12753393    -0.23500
H2305       H  0.77758436  0.36452879  0.04205395     0.05700
H2306       H  0.81572214  0.38682697  0.01934127     0.08900
H2307       H  0.79756711  0.41210978  0.03610076     0.10300
H2308       H  0.92887545  0.41816995  0.12013401     0.08900
H2309       H  0.89276227  0.40015139  0.14501247     0.08900
H2310       H  0.91330915  0.44654240  0.13504865     0.05600
C2311       C  0.58518929  0.15574438  0.08382039    -0.20200
C2312       C  0.57649668  0.15824679  0.05675142    -0.06700
C2313       C  0.55445843  0.17327391  0.05078491     0.14100
C2314       C  0.54005095  0.18391284  0.07191712    -0.20200
C2315       C  0.54611796  0.17862429  0.09897786    -0.06700
C2316       C  0.57001056  0.16565073  0.10517263     0.14100
C2317       C  0.07788761  0.16044639  0.13414217    -0.23600
H2318       H  0.60221988  0.14421146  0.08827700     0.15400
H2319       H  0.52210250  0.19433115  0.06737811     0.15400
C2320       C  0.54557866  0.17749286  0.02210699    -0.23500
H2321       H  0.09628373  0.14909103  0.13526242     0.05700
H2322       H  0.05227596  0.14159877  0.14488298     0.08900
H2323       H  0.09117171  0.18678589  0.14475545     0.08900
H2324       H  0.53092060  0.15055969  0.01239319     0.08900
H2325       H  0.57130351  0.19531754  0.01111225     0.08900
H2326       H  0.52811328  0.18990500  0.02089523     0.05600
C2327       C  0.55569156  0.17379520  0.44831512    -0.20200
C2328       C  0.57659018  0.15831938  0.44080631    -0.06700
C2329       C  0.58418549  0.15683564  0.41312863     0.14100
C2330       C  0.56835769  0.16852803  0.39352329    -0.20200
C2331       C  0.54506855  0.18142359  0.40119267    -0.06700
C2332       C  0.54065064  0.18634289  0.42888410     0.14100
C2333       C  0.52036879  0.20496836  0.43791027    -0.23600
H2334       H  0.55028036  0.17529158  0.46937322     0.15400
H2335       H  0.57199158  0.16511627  0.37218372     0.15400
C2336       C  0.60731286  0.14121166  0.40430583    -0.23500
H2337       H  0.51994545  0.20692862  0.46038753     0.05700
H2338       H  0.99201247  0.19018255  0.43087253     0.08900
H2339       H  0.53374658  0.23274411  0.42929622     0.08900
H2340       H  0.59483642  0.11279641  0.41134593     0.08900
H2341       H  0.63478349  0.15706135  0.41320684     0.08900
H2342       H  0.61020840  0.14168673  0.38185548     0.05600
C2343       C  0.62080658  0.02548571  0.40054162    -0.20200
C2344       C  0.65589662  0.03044527  0.40146667    -0.06700
C2345       C  0.67954694  0.05166288  0.42227878     0.14100
C2346       C  0.66753091  0.06745673  0.44164347    -0.20200
C2347       C  0.63225492  0.06240958  0.44091220    -0.06700
C2348       C  0.60859348  0.04120342  0.41977832     0.14100
C2349       C  0.57093335  0.03543921  0.41574399    -0.23600
H2350       H  0.60290328  0.00976652  0.38426618     0.15400
H2351       H  0.68572469  0.08351134  0.45773011     0.15400
C2352       C  0.71723881  0.05711922  0.42433086    -0.23500
H2353       H  0.56871047  0.04406540  0.39485996     0.05700
H2354       H  0.56366936  0.05093061  0.42971971     0.08900
H2355       H  0.55071340  0.00629650  0.41818283     0.08900
H2356       H  0.73310742  0.07105296  0.40581384     0.08900
H2357       H  0.71575133  0.03055492  0.42644778     0.08900
H2358       H  0.73194771  0.07379457  0.44216334     0.05600
C2359       C  0.61781868  0.02735843  0.10012572    -0.20200
C2360       C  0.65337684  0.03359831  0.10044359    -0.06700
C2361       C  0.67827960  0.05585523  0.08013837     0.14100
C2362       C  0.66694613  0.07123044  0.06008409    -0.20200
C2363       C  0.63110908  0.06423575  0.05911179    -0.06700
C2364       C  0.60623346  0.04228311  0.07965291     0.14100
C2365       C  0.56780212  0.03510043  0.08062491    -0.23600
H2366       H  0.59893000  0.01018154  0.11570740     0.15400
H2367       H  0.68609581  0.08781435  0.04440730     0.15400
C2368       C  0.71629685  0.06204345  0.07780332    -0.23500
H2369       H  0.55306663  0.01924315  0.09896210     0.05700
H2370       H  0.55264697  0.01930847  0.06262094     0.08900
H2371       H  0.56782543  0.06107402  0.08112950     0.08900
H2372       H  0.72218397  0.04641822  0.09289053     0.08900
H2373       H  0.73613327  0.09121190  0.08030277     0.08900
H2374       H  0.72022965  0.05354186  0.05739135     0.05600
C2375       C  0.78577855  0.21804245  0.21493574    -0.20200
C2376       C  0.82011051  0.22584726  0.22407635    -0.06700
C2377       C  0.85104078  0.25812419  0.21541932     0.14100
C2378       C  0.84662225  0.28303364  0.19981849    -0.20200
C2379       C  0.81279424  0.27439822  0.18899135    -0.06700
C2380       C  0.78199429  0.24092149  0.19617431     0.14100
C2381       C  0.74579043  0.22693795  0.18274174    -0.23600
H2382       H  0.76225046  0.19248975  0.22061316     0.15400
H2383       H  0.87045509  0.30794291  0.19342704     0.15400
C2384       C  0.88894660  0.26500587  0.22000871    -0.23500
H2385       H  0.73673504  0.19968154  0.17435255     0.05700
H2386       H  0.74695978  0.24411855  0.16550778     0.08900
H2387       H  0.72549120  0.22499584  0.19786175     0.08900
H2388       H  0.89262844  0.24478680  0.20863513     0.08900
H2389       H  0.89406618  0.26314715  0.24174093     0.08900
H2390       H  0.90984191  0.29213497  0.21255679     0.05600
C2391       C  0.83658551  0.25631275  0.28481513    -0.20200
C2392       C  0.81375459  0.21876218  0.28565127    -0.06700
C2393       C  0.78284255  0.20409491  0.30290208     0.14100
C2394       C  0.77695542  0.22714114  0.31985417    -0.20200
C2395       C  0.80070416  0.26454442  0.31945025    -0.06700
C2396       C  0.83026795  0.27934805  0.30103995     0.14100
C2397       C  0.85668905  0.31935856  0.29875474    -0.23600
H2398       H  0.86023196  0.26807135  0.27198075     0.15400
H2399       H  0.75465330  0.21585735  0.33429468     0.15400
C2400       C  0.75601385  0.16430322  0.30367494    -0.23500
H2401       H  0.88421949  0.32494851  0.30446065     0.05700
H2402       H  0.84946208  0.33581942  0.31185156     0.08900
H2403       H  0.85740985  0.32832496  0.27743478     0.08900
H2404       H  0.76903846  0.14962309  0.31217724     0.08900
H2405       H  0.74598122  0.15468993  0.28286179     0.08900
H2406       H  0.73223188  0.15793134  0.31675421     0.05600
C2407       C  0.90957289  0.20134836  0.30401804    -0.20200
C2408       C  0.89714666  0.17662553  0.28253777    -0.06700
C2409       C  0.91395782  0.15560184  0.27774855     0.14100
C2410       C  0.94351183  0.16110099  0.29381063    -0.20200
C2411       C  0.95587780  0.18597191  0.31509494    -0.06700
C2412       C  0.93855581  0.20616373  0.32037268     0.14100
C2413       C  0.95020568  0.23229157  0.34370013    -0.23600
H2414       H  0.89670130  0.21729292  0.30782596     0.15400
H2415       H  0.95574534  0.14444234  0.29067705     0.15400
C2416       C  0.90052929  0.12580975  0.25708247    -0.23500
H2417       H  0.93402180  0.24608812  0.34482764     0.05700
H2418       H  0.97916282  0.25326273  0.34125033     0.08900
H2419       H  0.94664135  0.21768575  0.36318119     0.08900
H2420       H  0.92176061  0.13258702  0.24136071     0.08900
H2421       H  0.87525329  0.12076071  0.24702120     0.08900
H2422       H  0.89462125  0.10019471  0.26726641     0.05600
C2423       C  0.88892840  0.16757260  0.19298050    -0.20200
C2424       C  0.89833123  0.18409208  0.21851191    -0.06700
C2425       C  0.93581857  0.20762981  0.22344229     0.14100
C2426       C  0.96179049  0.20702838  0.20588685    -0.20200
C2427       C  0.95209197  0.19070367  0.18002609    -0.06700
C2428       C  0.91503950  0.17577656  0.17283473     0.14100
C2429       C  0.90238774  0.17306730  0.14399093    -0.23600
H2430       H  0.86084310  0.15031850  0.18746995     0.15400
H2431       H  0.98937537  0.22098229  0.21261187     0.15400
C2432       C  0.94973198  0.23618721  0.24496534    -0.23500
H2433       H  0.88550607  0.18607469  0.14214901     0.05700
H2434       H  0.88562040  0.14431959  0.13807291     0.08900
H2435       H  0.92554892  0.18816590  0.12990227     0.08900
H2436       H  0.96683873  0.26298605  0.23522429     0.08900
H2437       H  0.92785968  0.23793776  0.25560834     0.08900
H2438       H  0.96617818  0.23109017  0.25984447     0.05600
C2439       C  0.73854102  0.08287924  0.27732084    -0.20200
C2440       C  0.77596000  0.09947374  0.28264048    -0.06700
C2441       C  0.78754008  0.08636199  0.30479721     0.14100
C2442       C  0.76163099  0.05936520  0.32178723    -0.20200
C2443       C  0.72451544  0.04292164  0.31648736    -0.06700
C2444       C  0.71276253  0.05452289  0.29373829     0.14100
C2445       C  0.67329250  0.03827401  0.28668570    -0.23600
H2446       H  0.72922595  0.09256979  0.26054452     0.15400
H2447       H  0.77051907  0.05160685  0.33990197     0.15400
C2448       C  0.82688329  0.09886539  0.31032621    -0.23500
H2449       H  0.66554984  0.05948564  0.28740879     0.05700
H2450       H  0.65520959  0.01610286  0.30071410     0.08900
H2451       H  0.66873707  0.52709667  0.26582612     0.08900
H2452       H  0.84107789  0.12638006  0.31879644     0.08900
H2453       H  0.84039114  0.09769728  0.29149066     0.08900
H2454       H  0.82989142  0.08122418  0.32548088     0.05600
C2455       C  0.74214852  0.04036130  0.20374080    -0.20200
C2456       C  0.73119891  0.05029469  0.17963990    -0.06700
C2457       C  0.74908020  0.08819989  0.17390245     0.14100
C2458       C  0.76725578  0.11309422  0.19453852    -0.20200
C2459       C  0.77819197  0.10319924  0.21829303    -0.06700
C2460       C  0.76820042  0.06630512  0.22128180     0.14100
C2461       C  0.78656312  0.05331160  0.24067844    -0.23600
H2462       H  0.73275517  0.01271217  0.20885558     0.15400
H2463       H  0.77561601  0.14112732  0.19063816     0.15400
C2464       C  0.75496903  0.10414967  0.14566237    -0.23500
H2465       H  0.79660439  0.03763031  0.22934509     0.05700
H2466       H  0.76703323  0.03545542  0.25644904     0.08900
H2467       H  0.81059663  0.07582927  0.25024069     0.08900
H2468       H  0.73922155  0.11818898  0.14282028     0.08900
H2469       H  0.74839136  0.08364403  0.12983560     0.08900
H2470       H  0.78418020  0.12418296  0.14260472     0.05600
C2471       C  0.83062755  0.16674931  0.77867870     0.45600
H2472       H  0.83042396  0.16623316  0.80114517    -0.03400
C2473       C  0.83121670  0.17077353  0.72626741     0.45700
H2474       H  0.83143655  0.17403834  0.70398121    -0.03400
C2475       C  0.80214136  0.13108210  0.76552467    -0.17100
C2476       C  0.82242280  0.19580163  0.76778863    -0.16900
C2477       C  0.86713577  0.17455727  0.76559400    -0.17200
C2478       C  0.80246589  0.13298482  0.73740099    -0.17200
C2479       C  0.82369045  0.19826117  0.74010525    -0.16800
C2480       C  0.86776055  0.17763734  0.73761295    -0.17100
O2481       O  0.64483626  0.11038111  0.52601422    -0.71600
O2482       O  0.61905047  0.15674789  0.97156201    -0.71900
O2483       O  0.61931332  0.15617969  0.52651595    -0.71700
O2484       O  0.64474442  0.11077006  0.97121147    -0.71700
O2485       O  0.59033017  0.06443301  0.97268091    -0.71700
O2486       O  0.56373783  0.11153185  0.52550886    -0.71700
O2487       O  0.56448179  0.11035215  0.97112069    -0.71600
O2488       O  0.58934660  0.06595453  0.52741758    -0.71800
V2489       V  0.63096147  0.13264903  0.99880444     1.35200
V2490       V  0.57807228  0.08893784  0.99912136     1.35200
C2491       C  0.62121279  0.08081861  0.53663545     0.77600
C2492       C  0.58732046  0.14117051  0.96199344     0.77700
C2493       C  0.58710449  0.14142918  0.53535051     0.77500
C2494       C  0.62181989  0.07991673  0.96236687     0.77500
O2495       O  0.91029294  0.46341302  0.52765569    -0.71600
O2496       O  0.94787792  0.03419745  0.97161992    -0.71900
O2497       O  0.94902716  0.03526960  0.52639978    -0.71700
O2498       O  0.90931072  0.46212884  0.97289137    -0.71700
O2499       O  0.85907491  0.46365804  0.97369514    -0.71700
O2500       O  0.89957522  0.03808362  0.52647983    -0.71700
O2501       O  0.89792050  0.03597659  0.97180387    -0.71600
O2502       O  0.86057888  0.46591643  0.52808315    -0.71800
V2503       V  0.92815275  0.49877691  0.49962531     1.35200
V2504       V  0.88027592  0.50091552  0.99998941     1.35200
C2505       C  0.87917438  0.45297871  0.53758721     0.77600
C2506       C  0.92910945  0.04685026  0.96183190     0.77700
C2507       C  0.93085636  0.04863649  0.53603935     0.77500
C2508       C  0.87762948  0.45070913  0.96401346     0.77500
O2509       O  0.96141179  0.38743177  0.97105956    -0.71600
O2510       O  0.53365715  0.42545085  0.52528871    -0.71900
O2511       O  0.53404438  0.42181035  0.97096861    -0.71700
O2512       O  0.96074769  0.39028533  0.52545821    -0.71700
O2513       O  0.95925810  0.33877722  0.52790574    -0.71700
O2514       O  0.53332224  0.37072399  0.97393551    -0.71700
O2515       O  0.53208817  0.37401833  0.52868628    -0.71600
O2516       O  0.95992531  0.33595287  0.97309466    -0.71800
V2517       V  0.99741105  0.40517517  0.99827820     1.35200
V2518       V  0.99612832  0.35579539  0.50084058     1.35200
C2519       C  0.94878686  0.35565566  0.96242003     0.77600
C2520       C  0.54543783  0.40654466  0.53609936     0.77700
C2521       C  0.54624849  0.40172628  0.96328441     0.77500
C2522       C  0.94767990  0.35916804  0.53596153     0.77500
C2523       C  0.97864962  0.18786948  0.66071178     0.02400
C2524       C  0.51684244  0.21275388  0.65916283     0.02400
C2525       C  0.53777180  0.20949135  0.63846835    -0.18100
C2526       C  0.52271218  0.18146944  0.61988808     0.02400
C2527       C  0.98551997  0.15585003  0.62142293     0.02400
C2528       C  0.96451484  0.15842284  0.64232657    -0.18100
H2529       H  0.93664098  0.13692421  0.64405005     0.04400
H2530       H  0.56674470  0.22834143  0.63749630     0.04400
C2531       C  0.80072213  0.32215201  0.66748701     0.02400
C2532       C  0.81386429  0.29756983  0.66596906     0.02400
C2533       C  0.83464854  0.29898146  0.64319839    -0.18100
C2534       C  0.84499641  0.32578588  0.62323395     0.02400
C2535       C  0.83240582  0.35058010  0.62528273     0.02400
C2536       C  0.80988807  0.34803796  0.64685168    -0.18100
H2537       H  0.79965433  0.36670105  0.64773505     0.04400
H2538       H  0.84415171  0.27980646  0.64166366     0.04400
C2539       C  0.51868713  0.20823263  0.83589226     0.02400
C2540       C  0.98059193  0.18450384  0.83546934     0.02400
C2541       C  0.96415881  0.15898717  0.85646427    -0.18100
C2542       C  0.98436320  0.15761015  0.87833424     0.02400
C2543       C  0.52153402  0.18391591  0.88018511     0.02400
C2544       C  0.53763983  0.20975582  0.85969222    -0.18100
H2545       H  0.56637802  0.22915398  0.86114642     0.04400
H2546       H  0.93537590  0.13953964  0.85550166     0.04400
C2547       C  0.78579839  0.31018375  0.84178559     0.02400
C2548       C  0.80054048  0.28648042  0.84246993     0.02400
C2549       C  0.82411567  0.28922794  0.86360515    -0.18100
C2550       C  0.83563987  0.31611976  0.88318537     0.02400
C2551       C  0.82334644  0.34103270  0.88169503     0.02400
C2552       C  0.80045080  0.33893112  0.86060744    -0.18100
H2553       H  0.79399945  0.36032357  0.85914519     0.04400
H2554       H  0.83597247  0.27190748  0.86355222     0.04400
C2555       C  0.69929112  0.01837607  0.83771112     0.02400
C2556       C  0.68527121  0.48049920  0.83788896     0.02400
C2557       C  0.66362660  0.45994644  0.85995123    -0.18100
C2558       C  0.65348047  0.47546738  0.88054354     0.02400
C2559       C  0.66712956  0.01306506  0.88041390     0.02400
C2560       C  0.69042782  0.03417718  0.85925792    -0.18100
H2561       H  0.70097803  0.06310655  0.85915374     0.04400
H2562       H  0.65228875  0.43087909  0.86007320     0.04400
C2563       C  0.70239650  0.02273580  0.66048228     0.02400
C2564       C  0.69221507  0.48541529  0.65802407     0.02400
C2565       C  0.67073950  0.46503744  0.63592769    -0.18100
C2566       C  0.65577685  0.47899307  0.61754431     0.02400
C2567       C  0.66362229  0.01492118  0.62102683     0.02400
C2568       C  0.68430575  0.03495806  0.64315785    -0.18100
H2569       H  0.68693804  0.06115785  0.64620758     0.04400
H2570       H  0.66412461  0.43719459  0.63389032     0.04400
C2571       C  0.66559722  0.33702209  0.72150624     0.45600
H2572       H  0.66698932  0.33754261  0.69899692    -0.03400
C2573       C  0.66059630  0.33563486  0.77398798     0.45700
H2574       H  0.65669354  0.33493043  0.79625712    -0.03400
C2575       C  0.62758130  0.30898925  0.73252207    -0.17100
C2576       C  0.69227259  0.32736921  0.73562350    -0.16900
C2577       C  0.67433448  0.37370683  0.73352815    -0.17200
C2578       C  0.62516796  0.30863846  0.76022013    -0.17200
C2579       C  0.68934255  0.32591779  0.76382514    -0.16800
C2580       C  0.67103702  0.37266457  0.76133081    -0.17100
C2581       C  0.66160144  0.42212845  0.71820139    -0.20200
C2582       C  0.68326570  0.40607956  0.71608132    -0.06700
C2583       C  0.71197986  0.42042150  0.69674966     0.14100
C2584       C  0.71620389  0.44819470  0.67890288    -0.20200
C2585       C  0.69329294  0.46287574  0.68057049    -0.06700
C2586       C  0.66651281  0.45050763  0.70113076     0.14100
C2587       C  0.64217302  0.46645725  0.70452551    -0.23600
H2588       H  0.63969563  0.41174864  0.73257947     0.15400
H2589       H  0.73673800  0.45778934  0.66307701     0.15400
C2590       C  0.73859329  0.40710593  0.69495683    -0.23500
H2591       H  0.62242752  0.45336558  0.72142840     0.05700
H2592       H  0.62668315  0.46301913  0.68562210     0.08900
H2593       H  0.65880179  0.49566149  0.70915144     0.08900
H2594       H  0.72509790  0.37917581  0.68718689     0.08900
H2595       H  0.75030969  0.40823842  0.71529278     0.08900
H2596       H  0.76130792  0.42390914  0.68080753     0.05600
C2597       C  0.71064118  0.42913736  0.78708888    -0.20200
C2598       C  0.67581601  0.40356432  0.77823615    -0.06700
C2599       C  0.64579143  0.40627385  0.78732768     0.14100
C2600       C  0.65149338  0.43571558  0.80308161    -0.20200
C2601       C  0.68562472  0.45948427  0.81397285    -0.06700
C2602       C  0.71562852  0.45571671  0.80618801     0.14100
C2603       C  0.75221231  0.47671630  0.81922206    -0.23600
H2604       H  0.73358870  0.42639068  0.78090617     0.15400
H2605       H  0.62830050  0.43784723  0.80962615     0.15400
C2606       C  0.60742140  0.37690046  0.78255950    -0.23500
H2607       H  0.76090608  0.45778173  0.82689116     0.05700
H2608       H  0.75179733  0.49229933  0.83690177     0.08900
H2609       H  0.77234872  0.99525842  0.80404482     0.08900
H2610       H  0.60317943  0.35163047  0.79223662     0.08900
H2611       H  0.60178283  0.37272408  0.76065783     0.08900
H2612       H  0.58737095  0.38328404  0.79158331     0.05600
C2613       C  0.75034038  0.29241883  0.79639376    -0.20200
C2614       C  0.75644719  0.30772404  0.82258720    -0.06700
C2615       C  0.73383424  0.32201138  0.83022029     0.14100
C2616       C  0.71635016  0.33101738  0.81017081    -0.20200
C2617       C  0.71092308  0.31673519  0.78380405    -0.06700
C2618       C  0.72436166  0.29273395  0.77871759     0.14100
C2619       C  0.70929763  0.26405872  0.75718593    -0.23600
H2620       H  0.76379310  0.27832837  0.78957371     0.15400
H2621       H  0.70531643  0.34779644  0.81623454     0.15400
C2622       C  0.72411833  0.32472897  0.85933265    -0.23500
H2623       H  0.69973926  0.23724350  0.76684054     0.05700
H2624       H  0.73068025  0.26873644  0.74211931     0.08900
H2625       H  0.68547001  0.26239550  0.74692283     0.08900
H2626       H  0.73504676  0.35344486  0.86492259     0.08900
H2627       H  0.73362985  0.31143772  0.87387673     0.08900
H2628       H  0.69412627  0.31042322  0.86155049     0.05600
C2629       C  0.53365464  0.25163535  0.79632979    -0.20200
C2630       C  0.54129251  0.22859541  0.81182879    -0.06700
C2631       C  0.57422975  0.22887593  0.80662975     0.14100
C2632       C  0.60144995  0.25708655  0.79158149    -0.20200
C2633       C  0.59441106  0.28068161  0.77658688    -0.06700
C2634       C  0.55913989  0.27625386  0.77753152     0.14100
C2635       C  0.54751209  0.29700820  0.75951976    -0.23600
H2636       H  0.50841307  0.25140033  0.79921664     0.15400
H2637       H  0.62778722  0.25905042  0.78998444     0.15400
C2638       C  0.58129203  0.19931550  0.81603168    -0.23500
H2639       H  0.53708005  0.31146141  0.77196912     0.05700
H2640       H  0.52591100  0.27791218  0.74586704     0.08900
H2641       H  0.56962073  0.31679723  0.74642436     0.08900
H2642       H  0.55684310  0.17589215  0.82492598     0.08900
H2643       H  0.60359331  0.21015436  0.83108681     0.08900
H2644       H  0.58945521  0.18891739  0.79834558     0.05600
C2645       C  0.73761815  0.30131402  0.67987066    -0.20200
C2646       C  0.77386022  0.31963982  0.68779164    -0.06700
C2647       C  0.78371272  0.34084710  0.71146963     0.14100
C2648       C  0.75673089  0.34288873  0.72674626    -0.20200
C2649       C  0.71988871  0.32334056  0.71927200    -0.06700
C2650       C  0.71049087  0.30160900  0.69559102     0.14100
C2651       C  0.67236131  0.27715107  0.68626127    -0.23600
H2652       H  0.73030352  0.28675519  0.66083387     0.15400
H2653       H  0.76448474  0.36016162  0.74439836     0.15400
C2654       C  0.82273482  0.36211243  0.72002674    -0.23500
H2655       H  0.66764349  0.24935454  0.68355038     0.05700
H2656       H  0.66769269  0.28705728  0.66664848     0.08900
H2657       H  0.65249813  0.27515198  0.70115516     0.08900
H2658       H  0.83912038  0.38171782  0.70380530     0.08900
H2659       H  0.83333544  0.34346035  0.72369460     0.08900
H2660       H  0.82589852  0.37733956  0.73900128     0.05600
C2661       C  0.55272754  0.22311937  0.70004593    -0.20200
C2662       C  0.53899168  0.23741737  0.68094527    -0.06700
C2663       C  0.55404248  0.27514250  0.67891052     0.14100
C2664       C  0.58289887  0.29780570  0.69601963    -0.20200
C2665       C  0.59729888  0.28348444  0.71475359    -0.06700
C2666       C  0.58226454  0.24545971  0.71632325     0.14100
C2667       C  0.59842841  0.22723076  0.73273155    -0.23600
H2668       H  0.54216117  0.19416734  0.70061229     0.15400
H2669       H  0.59445749  0.32683656  0.69469287     0.15400
C2670       C  0.53999916  0.29123965  0.65837423    -0.23500
H2671       H  0.60523935  0.21083580  0.71909499     0.05700
H2672       H  0.57843218  0.20893729  0.74806820     0.08900
H2673       H  0.62381833  0.24665401  0.74290233     0.08900
H2674       H  0.51069384  0.28087666  0.66214283     0.08900
H2675       H  0.54368921  0.28369854  0.63755451     0.08900
H2676       H  0.55447542  0.32118036  0.65955520     0.05600
C2677       C  0.88811273  0.31099284  0.94426922    -0.20200
C2678       C  0.92177186  0.34259321  0.94026288    -0.06700
C2679       C  0.92782618  0.36283038  0.91597751     0.14100
C2680       C  0.89988291  0.35170479  0.89701778    -0.20200
C2681       C  0.86537771  0.32206695  0.90206683    -0.06700
C2682       C  0.85967889  0.30065054  0.92548981     0.14100
C2683       C  0.82352456  0.26747289  0.93089993    -0.23600
H2684       H  0.88351637  0.29531526  0.96271468     0.15400
H2685       H  0.90466050  0.36724402  0.87846185     0.15400
C2686       C  0.96318297  0.39644716  0.90917382    -0.23500
H2687       H  0.82341361  0.25415183  0.95034958     0.05700
H2688       H  0.81712275  0.24777881  0.91427292     0.08900
H2689       H  0.80201833  0.27480739  0.93199306     0.08900
H2690       H  0.98419540  0.40353452  0.92478443     0.08900
H2691       H  0.95852833  0.41964310  0.90681667     0.08900
H2692       H  0.97400056  0.39252429  0.88972874     0.05600
C2693       C  0.63697521  0.44795859  0.92671335    -0.20200
C2694       C  0.62595557  0.45146441  0.90065148    -0.06700
C2695       C  0.58872256  0.43283009  0.89418832     0.14100
C2696       C  0.56319960  0.41532713  0.91499690    -0.20200
C2697       C  0.57408288  0.41429955  0.94166632    -0.06700
C2698       C  0.61136890  0.42834484  0.94710596     0.14100
C2699       C  0.62510946  0.42277165  0.97376722    -0.23600
H2700       H  0.66567535  0.46069317  0.93117638     0.15400
H2701       H  0.53464186  0.40250613  0.91043510     0.15400
C2702       C  0.57589818  0.43157580  0.86547423    -0.23500
H2703       H  0.63951123  0.40753040  0.97022136     0.05700
H2704       H  0.60302815  0.40717621  0.98862719     0.08900
H2705       H  0.64470721  0.44930417  0.98258851     0.08900
H2706       H  0.58626437  0.41769960  0.85231283     0.08900
H2707       H  0.58585897  0.45924087  0.85744865     0.08900
H2708       H  0.54583577  0.41651947  0.86422110     0.05600
C2709       C  0.63603148  0.46781126  0.56917560    -0.20200
C2710       C  0.62965561  0.45540973  0.59618896    -0.06700
C2711       C  0.59589357  0.42431446  0.60277638     0.14100
C2712       C  0.56972505  0.40731359  0.58228578    -0.20200
C2713       C  0.57491573  0.42278996  0.55630089    -0.06700
C2714       C  0.60794782  0.45445444  0.55016350     0.14100
C2715       C  0.61268804  0.47626410  0.52477033    -0.23600
H2716       H  0.66204211  0.99060487  0.56367535     0.15400
H2717       H  0.54406798  0.38336559  0.58708497     0.15400
C2718       C  0.58620477  0.41013491  0.63148756    -0.23500
H2719       H  0.64117210  0.99832884  0.52192725     0.05700
H2720       H  0.59532456  0.48874393  0.52624810     0.08900
H2721       H  0.60433155  0.95892466  0.50666169     0.08900
H2722       H  0.58903986  0.43196377  0.64513767     0.08900
H2723       H  0.60388322  0.39964452  0.63853646     0.08900
H2724       H  0.55776836  0.38756187  0.63310007     0.05600
C2725       C  0.85909561  0.32685811  0.57389745    -0.20200
C2726       C  0.87035257  0.32901286  0.60099458    -0.06700
C2727       C  0.90668504  0.33830454  0.60631213     0.14100
C2728       C  0.93108557  0.34707668  0.58450241    -0.20200
C2729       C  0.92022975  0.34724676  0.55770169    -0.06700
C2730       C  0.88380235  0.33663707  0.55221745     0.14100
C2731       C  0.87115621  0.33596821  0.52355947    -0.23600
H2732       H  0.83109139  0.31879964  0.56977742     0.15400
H2733       H  0.95910448  0.35487665  0.58840893     0.15400
C2734       C  0.92035486  0.34026002  0.63485015    -0.23500
H2735       H  0.84176308  0.32692737  0.52284438     0.05700
H2736       H  0.87600260  0.31715602  0.51116846     0.08900
H2737       H  0.88626511  0.36345675  0.51446741     0.08900
H2738       H  0.90666226  0.31305444  0.64437636     0.08900
H2739       H  0.91523776  0.35879477  0.64729135     0.08900
H2740       H  0.94996648  0.35029311  0.63513586     0.05600
C2741       C  0.93467061  0.10174664  0.55914345    -0.20200
C2742       C  0.94534596  0.07563601  0.55818036    -0.06700
C2743       C  0.96827417  0.07517389  0.57884289     0.14100
C2744       C  0.97888417  0.10012444  0.60016607    -0.20200
C2745       C  0.96852485  0.12650196  0.60089243    -0.06700
C2746       C  0.94648675  0.12752413  0.57985829     0.14100
C2747       C  0.93583905  0.15610130  0.57871675    -0.23600
H2748       H  0.91737896  0.10236788  0.54328200     0.15400
H2749       H  0.49640987  0.09987423  0.61597501     0.15400
C2750       C  0.98150353  0.04843052  0.57884919    -0.23500
H2751       H  0.92203762  0.15525052  0.55939297     0.05700
H2752       H  0.96009028  0.18339355  0.58051118     0.08900
H2753       H  0.91651572  0.15117484  0.59535736     0.08900
H2754       H  0.99892485  0.05296051  0.56076255     0.08900
H2755       H  0.95804527  0.02052724  0.57869861     0.08900
H2756       H  0.49797489  0.05120606  0.59709259     0.05600
C2757       C  0.92588477  0.09452781  0.93527006    -0.20200
C2758       C  0.94278803  0.07382516  0.93938430    -0.06700
C2759       C  0.97157809  0.07926428  0.92183642     0.14100
C2760       C  0.98190983  0.10456575  0.90070147    -0.20200
C2761       C  0.96711446  0.12724298  0.89812728    -0.06700
C2762       C  0.93815205  0.12170786  0.91537503     0.14100
C2763       C  0.42043408  0.14465757  0.91435942    -0.23600
H2764       H  0.90378643  0.09062851  0.94848491     0.15400
H2765       H  0.00297924  0.10784802  0.88665563     0.15400
C2766       C  0.99224639  0.05938604  0.92515412    -0.23500
H2767       H  0.42205747  0.15654873  0.93467208     0.05700
H2768       H  0.39144593  0.12758187  0.90885352     0.08900
H2769       H  0.43338576  0.16735622  0.89970217     0.08900
H2770       H  0.97368822  0.02999218  0.92369628     0.08900
H2771       H  0.00595758  0.06577439  0.94510989     0.08900
H2772       H  0.01355179  0.06716887  0.90930594     0.05600
C2773       C  0.86621802  0.40283101  0.89712868    -0.20200
C2774       C  0.83459655  0.36988376  0.90212269    -0.06700
C2775       C  0.81575488  0.36426627  0.92699977     0.14100
C2776       C  0.83007878  0.39134568  0.94679122    -0.20200
C2777       C  0.86296939  0.42343398  0.94239332    -0.06700
C2778       C  0.88106683  0.42936353  0.91718415     0.14100
C2779       C  0.91578940  0.46381635  0.91121671    -0.23600
H2780       H  0.87999686  0.40725475  0.87775132     0.15400
H2781       H  0.81588741  0.38705873  0.96598199     0.15400
C2782       C  0.78057955  0.33022793  0.93325652    -0.23500
H2783       H  0.92559936  0.46452543  0.89017093     0.05700
H2784       H  0.93716156  0.46629759  0.92533947     0.08900
H2785       H  0.91137287  0.48712880  0.91366993     0.08900
H2786       H  0.78385088  0.31707227  0.95167740     0.08900
H2787       H  0.75906810  0.33709776  0.93720434     0.08900
H2788       H  0.77131841  0.31051044  0.91643400     0.05600
C2789       C  0.81881393  0.37442162  0.58398489    -0.20200
C2790       C  0.84302121  0.37968517  0.60503387    -0.06700
C2791       C  0.87823790  0.41011424  0.60459075     0.14100
C2792       C  0.88931063  0.43323000  0.58205660    -0.20200
C2793       C  0.86560044  0.42741403  0.56051495    -0.06700
C2794       C  0.82973830  0.39791827  0.56155651     0.14100
C2795       C  0.80367484  0.38989790  0.53846776    -0.23600
H2796       H  0.79189159  0.35082258  0.58451901     0.15400
H2797       H  0.91659525  0.45620547  0.58144954     0.15400
C2798       C  0.90464590  0.41897168  0.62753372    -0.23500
H2799       H  0.77758369  0.36452950  0.54205431     0.05700
H2800       H  0.81572120  0.38682757  0.51934138     0.08900
H2801       H  0.79756666  0.41211054  0.53610130     0.10300
H2802       H  0.92887537  0.41817014  0.62013380     0.08900
H2803       H  0.89276224  0.40015172  0.64501231     0.08900
H2804       H  0.91330914  0.44654268  0.63504837     0.05600
C2805       C  0.58518909  0.15574428  0.58382048    -0.20200
C2806       C  0.57649693  0.15824716  0.55675148    -0.06700
C2807       C  0.55445912  0.17327474  0.55078488     0.14100
C2808       C  0.54005161  0.18391364  0.57191706    -0.20200
C2809       C  0.54611815  0.17862467  0.59897780    -0.06700
C2810       C  0.57001033  0.16565063  0.60517266     0.14100
C2811       C  0.07788761  0.16044643  0.63414231    -0.23600
H2812       H  0.60221936  0.14421098  0.58827713     0.15400
H2813       H  0.52210348  0.19433235  0.56737800     0.15400
C2814       C  0.54557990  0.17749421  0.52210692    -0.23500
H2815       H  0.09628344  0.14909074  0.63526261     0.05700
H2816       H  0.05227581  0.14159901  0.64488302     0.08900
H2817       H  0.09117191  0.18678590  0.64475564     0.08900
H2818       H  0.53092179  0.15056121  0.51239287     0.08900
H2819       H  0.57130499  0.19531885  0.51111243     0.08900
H2820       H  0.52811479  0.18990665  0.52089511     0.05600
C2821       C  0.55568991  0.17379364  0.94831533    -0.20200
C2822       C  0.57658928  0.15831868  0.94080640    -0.06700
C2823       C  0.58418535  0.15683600  0.91312873     0.14100
C2824       C  0.56835761  0.16852859  0.89352347    -0.20200
C2825       C  0.54506793  0.18142349  0.90119293    -0.06700
C2826       C  0.54064928  0.18634180  0.92888441     0.14100
C2827       C  0.52036705  0.20496679  0.93791081    -0.23600
H2828       H  0.55027799  0.17528908  0.96937340     0.15400
H2829       H  0.57199202  0.16511751  0.87218389     0.15400
C2830       C  0.60731341  0.14121286  0.90430580    -0.23500
H2831       H  0.51994304  0.20692616  0.96038810     0.05700
H2832       H  0.99201122  0.19018101  0.93087235     0.08900
H2833       H  0.53374501  0.23274287  0.92929737     0.08900
H2834       H  0.59483723  0.11279742  0.91134542     0.08900
H2835       H  0.63478381  0.15706264  0.91320718     0.08900
H2836       H  0.61020946  0.14168868  0.88185547     0.05600
C2837       C  0.62080669  0.02548565  0.90054136    -0.20200
C2838       C  0.65589669  0.03044509  0.90146652    -0.06700
C2839       C  0.67954682  0.05166231  0.92227885     0.14100
C2840       C  0.66753073  0.06745605  0.94164362    -0.20200
C2841       C  0.63225481  0.06240913  0.94091216    -0.06700
C2842       C  0.60859353  0.04120325  0.91977812     0.14100
C2843       C  0.57093352  0.03543932  0.91574369    -0.23600
H2844       H  0.60290351  0.00976666  0.88426581     0.15400
H2845       H  0.68572435  0.08351038  0.95773038     0.15400
C2846       C  0.71723860  0.05711845  0.92433103    -0.23500
H2847       H  0.56871085  0.04406569  0.89485967     0.05700
H2848       H  0.56366961  0.05093078  0.92971941     0.08900
H2849       H  0.55071341  0.00629663  0.91818241     0.08900
H2850       H  0.73310740  0.07105241  0.90581413     0.08900
H2851       H  0.71575100  0.03055408  0.92644775     0.08900
H2852       H  0.73194737  0.07379351  0.94216365     0.05600
C2853       C  0.61781810  0.02735822  0.60012577    -0.20200
C2854       C  0.65337631  0.03359822  0.60044376    -0.06700
C2855       C  0.67827917  0.05585533  0.58013867     0.14100
C2856       C  0.66694579  0.07123063  0.56008442    -0.20200
C2857       C  0.63110869  0.06423578  0.55911197    -0.06700
C2858       C  0.60623294  0.04228294  0.57965296     0.14100
C2859       C  0.56780152  0.03510006  0.58062480    -0.23600
H2860       H  0.59892933  0.01018117  0.61570736     0.15400
H2861       H  0.68609558  0.08781471  0.54440774     0.15400
C2862       C  0.71629646  0.06204364  0.57780369    -0.23500
H2863       H  0.55306591  0.01924260  0.59896189     0.05700
H2864       H  0.55264658  0.01930824  0.56262072     0.08900
H2865       H  0.56782469  0.06107358  0.58112947     0.08900
H2866       H  0.72218352  0.04641826  0.59289080     0.08900
H2867       H  0.73613282  0.09121207  0.58030331     0.08900
H2868       H  0.72022941  0.05354229  0.55739167     0.05600
C2869       C  0.78577871  0.21804262  0.71493553    -0.20200
C2870       C  0.82011065  0.22584744  0.72407617    -0.06700
C2871       C  0.85104086  0.25812449  0.71541924     0.14100
C2872       C  0.84662225  0.28303400  0.69981855    -0.20200
C2873       C  0.81279424  0.27439851  0.68899137    -0.06700
C2874       C  0.78199436  0.24092166  0.69617419     0.14100
C2875       C  0.74579052  0.22693808  0.68274156    -0.23600
H2876       H  0.76225062  0.19248978  0.72061287     0.15400
H2877       H  0.87045505  0.30794336  0.69342718     0.15400
C2878       C  0.88894674  0.26500624  0.72000853    -0.23500
H2879       H  0.73673535  0.19968180  0.67435217     0.05700
H2880       H  0.74695980  0.24411884  0.66550776     0.08900
H2881       H  0.72549117  0.22499561  0.69786160     0.08900
H2882       H  0.89262857  0.24478722  0.70863485     0.08900
H2883       H  0.89406641  0.26314744  0.74174069     0.08900
H2884       H  0.90984198  0.29213537  0.71255662     0.05600
C2885       C  0.83658605  0.25631294  0.78481500    -0.20200
C2886       C  0.81375495  0.21876233  0.78565110    -0.06700
C2887       C  0.78284291  0.20409507  0.80290190     0.14100
C2888       C  0.77695578  0.22714126  0.81985409    -0.20200
C2889       C  0.80070465  0.26454455  0.81945020    -0.06700
C2890       C  0.83026846  0.27934818  0.80103992     0.14100
C2891       C  0.85668961  0.31935868  0.79875475    -0.23600
H2892       H  0.86023239  0.26807148  0.77198071     0.15400
H2893       H  0.75465371  0.21585751  0.83429455     0.15400
C2894       C  0.75601411  0.16430341  0.80367469    -0.23500
H2895       H  0.88422004  0.32494859  0.80446063     0.05700
H2896       H  0.84946266  0.33581953  0.81185163     0.08900
H2897       H  0.85741040  0.32832515  0.77743482     0.08900
H2898       H  0.76903867  0.14962320  0.81217693     0.08900
H2899       H  0.74598148  0.15469023  0.78286152     0.08900
H2900       H  0.73223215  0.15793154  0.81675396     0.05600
C2901       C  0.90957317  0.20134818  0.80401763    -0.20200
C2902       C  0.89714685  0.17662542  0.78253732    -0.06700
C2903       C  0.91395788  0.15560163  0.77774799     0.14100
C2904       C  0.94351187  0.16110059  0.79381003    -0.20200
C2905       C  0.95587793  0.18597145  0.81509440    -0.06700
C2906       C  0.93855606  0.20616337  0.82037222     0.14100
C2907       C  0.95020601  0.23229109  0.84369976    -0.23600
H2908       H  0.89670168  0.21729279  0.80782562     0.15400
H2909       H  0.95574526  0.14444186  0.79067640     0.15400
C2910       C  0.90052925  0.12580960  0.75708184    -0.23500
H2911       H  0.93402221  0.24608773  0.84482733     0.05700
H2912       H  0.97916318  0.25326217  0.84125001     0.08900
H2913       H  0.94664157  0.21768514  0.86318077     0.08900
H2914       H  0.92176053  0.13258685  0.74136006     0.08900
H2915       H  0.87525327  0.12076072  0.74702060     0.08900
H2916       H  0.89462109  0.10019449  0.76726571     0.05600
C2917       C  0.88892882  0.16757310  0.69298012    -0.20200
C2918       C  0.89833150  0.18409242  0.71851159    -0.06700
C2919       C  0.93581882  0.20763011  0.72344211     0.14100
C2920       C  0.96179076  0.20702867  0.70588676    -0.20200
C2921       C  0.95209248  0.19070408  0.68002599    -0.06700
C2922       C  0.91504006  0.17577705  0.67283447     0.14100
C2923       C  0.90238854  0.17306789  0.64399062    -0.23600
H2924       H  0.86084355  0.15031910  0.68746945     0.15400
H2925       H  0.98937571  0.22098259  0.71261188     0.15400
C2926       C  0.94973213  0.23618747  0.74496519    -0.23500
H2927       H  0.88550680  0.18607517  0.64214860     0.05700
H2928       H  0.88562137  0.14432020  0.63807249     0.08900
H2929       H  0.92554985  0.18816664  0.62990208     0.08900
H2930       H  0.96683897  0.26298633  0.73522419     0.08900
H2931       H  0.92785979  0.23793799  0.75560814     0.08900
H2932       H  0.96617826  0.23109040  0.75984437     0.05600
C2933       C  0.73854127  0.08287946  0.77732076    -0.20200
C2934       C  0.77596026  0.09947388  0.78264029    -0.06700
C2935       C  0.78754041  0.08636206  0.80479693     0.14100
C2936       C  0.76163136  0.05936523  0.82178698    -0.20200
C2937       C  0.72451579  0.04292175  0.81648722    -0.06700
C2938       C  0.71276282  0.05452309  0.79373823     0.14100
C2939       C  0.67329277  0.03827425  0.78668571    -0.23600
H2940       H  0.72922614  0.09257004  0.76054450     0.15400
H2941       H  0.77051951  0.05160682  0.83990165     0.15400
C2942       C  0.82688362  0.09886542  0.81032584    -0.23500
H2943       H  0.66555010  0.05948586  0.78740893     0.05700
H2944       H  0.65520991  0.01610301  0.80071408     0.08900
H2945       H  0.66873721  0.52709632  0.76582594     0.08900
H2946       H  0.84107828  0.12638011  0.81879604     0.08900
H2947       H  0.84039138  0.09769728  0.79149024     0.08900
H2948       H  0.82989181  0.08122422  0.82548047     0.05600
C2949       C  0.74214841  0.04036137  0.70374068    -0.20200
C2950       C  0.73119865  0.05029473  0.67963984    -0.06700
C2951       C  0.74907980  0.08819995  0.67390243     0.14100
C2952       C  0.76725561  0.11309436  0.69453845    -0.20200
C2953       C  0.77819197  0.10319933  0.71829286    -0.06700
C2954       C  0.76820039  0.06630520  0.72128162     0.14100
C2955       C  0.78656310  0.05331164  0.74067822    -0.23600
H2956       H  0.73275508  0.01271223  0.70885543     0.15400
H2957       H  0.77561581  0.14112739  0.69063813     0.15400
C2958       C  0.75496832  0.10414980  0.64566241    -0.23500
H2959       H  0.79660428  0.03763029  0.72934485     0.05700
H2960       H  0.76703326  0.03545553  0.75644886     0.08900
H2961       H  0.81059668  0.07582930  0.75024041     0.08900
H2962       H  0.73922062  0.11818890  0.64282048     0.08900
H2963       H  0.74839065  0.08364417  0.62983561     0.08900
H2964       H  0.78417941  0.12418322  0.64260462     0.05600
C2965       C  0.83062722  0.66674938  0.27867885     0.45600
H2966       H  0.83042359  0.66623320  0.30114532    -0.03400
C2967       C  0.83121644  0.67077368  0.22626758     0.45700
H2968       H  0.83143629  0.67403854  0.20398137    -0.03400
C2969       C  0.80214107  0.63108217  0.26552478    -0.17100
C2970       C  0.82242246  0.69580169  0.26778880    -0.16900
C2971       C  0.86713547  0.67455736  0.26559416    -0.17200
C2972       C  0.80246566  0.63298495  0.23740110    -0.17200
C2973       C  0.82369014  0.69826126  0.24010543    -0.16800
C2974       C  0.86776029  0.67763747  0.23761310    -0.17100
O2975       O  0.64483602  0.61038110  0.02601422    -0.71600
O2976       O  0.61905073  0.65674795  0.47156198    -0.71900
O2977       O  0.61931287  0.65617954  0.02651592    -0.71700
O2978       O  0.64474439  0.61076993  0.47121154    -0.71700
O2979       O  0.59032996  0.56443316  0.47268079    -0.71700
O2980       O  0.56373748  0.61153148  0.02550913    -0.71700
O2981       O  0.56448186  0.61035251  0.47112086    -0.71600
O2982       O  0.58934646  0.56595432  0.02741768    -0.71800
V2983       V  0.63096156  0.63264904  0.49880446     1.35200
V2984       V  0.57807230  0.58893798  0.49912139     1.35200
C2985       C  0.62121269  0.58081856  0.03663548     0.77600
C2986       C  0.58732066  0.64117076  0.46199351     0.77700
C2987       C  0.58710411  0.64142893  0.03535063     0.77500
C2988       C  0.62181972  0.57991673  0.46236682     0.77500
O2989       O  0.91029370  0.96341289  0.02765551    -0.71600
O2990       O  0.94787736  0.53419732  0.47161997    -0.71900
O2991       O  0.94902711  0.53526947  0.02639984    -0.71700
O2992       O  0.90931051  0.96212885  0.47289143    -0.71700
O2993       O  0.85907481  0.96365825  0.47369517    -0.71700
O2994       O  0.89957513  0.53808343  0.02647977    -0.71700
O2995       O  0.89792013  0.53597683  0.47180393    -0.71600
O2996       O  0.86057960  0.96591622  0.02808307    -0.71800
V2997       V  0.92815342  0.99877690  0.99962519     1.35200
V2998       V  0.88027591  0.00091572  0.49998945     1.35200
C2999       C  0.87917516  0.95297855  0.03758708     0.77600
C3000       C  0.92910905  0.54685032  0.46183196     0.77700
C3001       C  0.93085624  0.54863631  0.03603937     0.77500
C3002       C  0.87762930  0.95070923  0.46401351     0.77500
O3003       O  0.96141164  0.88743167  0.47105953    -0.71600
O3004       O  0.53365759  0.92545146  0.02528864    -0.71900
O3005       O  0.53404401  0.92180984  0.47096845    -0.71700
O3006       O  0.96074800  0.89028596  0.02545828    -0.71700
O3007       O  0.95925850  0.83877790  0.02790584    -0.71700
O3008       O  0.53332193  0.87072352  0.47393547    -0.71700
O3009       O  0.53208843  0.87401887  0.02868643    -0.71600
O3010       O  0.95992499  0.83595269  0.47309462    -0.71800
V3011       V  0.99741086  0.90517495  0.49827821     1.35200
V3012       V  0.99612866  0.85579605  0.00084063     1.35200
C3013       C  0.94878662  0.85565554  0.46242000     0.77600
C3014       C  0.54543818  0.90654525  0.03609939     0.77700
C3015       C  0.54624816  0.90172578  0.46328431     0.77500
C3016       C  0.94768029  0.85916870  0.03596165     0.77500
C3017       C  0.97864918  0.68786946  0.16071174     0.02400
C3018       C  0.51684208  0.71275387  0.15916286     0.02400
C3019       C  0.53777141  0.70949130  0.13846837    -0.18100
C3020       C  0.52271178  0.68146927  0.11988821     0.02400
C3021       C  0.98551943  0.65584981  0.12142296     0.02400
C3022       C  0.96451433  0.65842288  0.14232651    -0.18100
H3023       H  0.93664035  0.63692435  0.14404992     0.04400
H3024       H  0.56674428  0.72834142  0.13749626     0.04400
C3025       C  0.80072228  0.82215232  0.16748713     0.02400
C3026       C  0.81386458  0.79757024  0.16596928     0.02400
C3027       C  0.83464903  0.79898197  0.14319871    -0.18100
C3028       C  0.84499696  0.82578638  0.12323427     0.02400
C3029       C  0.83240630  0.85058055  0.12528298     0.02400
C3030       C  0.80988835  0.84803829  0.14685182    -0.18100
H3031       H  0.79965454  0.86670134  0.14773511     0.04400
H3032       H  0.84415226  0.77980699  0.14166404     0.04400
C3033       C  0.51868720  0.70823264  0.33589228     0.02400
C3034       C  0.98059174  0.68450375  0.33546933     0.02400
C3035       C  0.96415877  0.65898715  0.35646430    -0.18100
C3036       C  0.98436324  0.65761004  0.37833415     0.02400
C3037       C  0.52153423  0.68391602  0.38018511     0.02400
C3038       C  0.53764006  0.70975586  0.35969217    -0.18100
H3039       H  0.56637823  0.72915392  0.36114628     0.04400
H3040       H  0.93537577  0.63953967  0.35550183     0.04400
C3041       C  0.78579804  0.81018384  0.34178567     0.02400
C3042       C  0.80054000  0.78648040  0.34247009     0.02400
C3043       C  0.82411510  0.78922789  0.36360535    -0.18100
C3044       C  0.83563943  0.81611978  0.38318551     0.02400
C3045       C  0.82334615  0.84103284  0.38169507     0.02400
C3046       C  0.80045052  0.83893132  0.36060747    -0.18100
H3047       H  0.79399927  0.86032377  0.35914518     0.04400
H3048       H  0.83597182  0.77190734  0.36355247     0.04400
C3049       C  0.69929071  0.51837601  0.33771105     0.02400
C3050       C  0.68527118  0.98049910  0.33788910     0.02400
C3051       C  0.66362651  0.95994630  0.35995133    -0.18100
C3052       C  0.65348046  0.97546725  0.38054369     0.02400
C3053       C  0.66712913  0.51306495  0.38041381     0.02400
C3054       C  0.69042743  0.53417709  0.35925786    -0.18100
H3055       H  0.70097768  0.56310648  0.35915371     0.04400
H3056       H  0.65228855  0.93087893  0.36007323     0.04400
C3057       C  0.70239700  0.52273607  0.16048210     0.02400
C3058       C  0.69221519  0.98541551  0.15802417     0.02400
C3059       C  0.67073969  0.96503764  0.13592776    -0.18100
C3060       C  0.65577723  0.97899337  0.11754428     0.02400
C3061       C  0.66362285  0.51492150  0.12102664     0.02400
C3062       C  0.68430630  0.53495828  0.14315764    -0.18100
H3063       H  0.68693857  0.56115815  0.14620738     0.04400
H3064       H  0.66412471  0.93719479  0.13389045     0.04400
C3065       C  0.66559699  0.83702218  0.22150621     0.45600
H3066       H  0.66698912  0.83754276  0.19899690    -0.03400
C3067       C  0.66059604  0.83563486  0.27398797     0.45700
H3068       H  0.65669327  0.83493039  0.29625710    -0.03400
C3069       C  0.62758108  0.80898927  0.23252202    -0.17100
C3070       C  0.69227241  0.82736933  0.23562346    -0.16900
C3071       C  0.67433416  0.87370688  0.23352818    -0.17200
C3072       C  0.62516775  0.80863845  0.26022008    -0.17200
C3073       C  0.68934234  0.82591790  0.26382511    -0.16800
C3074       C  0.67103668  0.87266456  0.26133082    -0.17100
C3075       C  0.66160113  0.92212857  0.21820155    -0.20200
C3076       C  0.68326548  0.90607968  0.21608141    -0.06700
C3077       C  0.71197973  0.92042166  0.19674984     0.14100
C3078       C  0.71620386  0.94819489  0.17890308    -0.20200
C3079       C  0.69329295  0.96287596  0.18057063    -0.06700
C3080       C  0.66651277  0.95050788  0.20113086     0.14100
C3081       C  0.64217310  0.96645763  0.20452561    -0.23600
H3082       H  0.63969548  0.91174888  0.23257945     0.15400
H3083       H  0.73673804  0.95778953  0.16307725     0.15400
C3084       C  0.73859318  0.90710610  0.19495710    -0.23500
H3085       H  0.62242756  0.95336600  0.22142846     0.05700
H3086       H  0.62668328  0.96301957  0.18562217     0.08900
H3087       H  0.65880195  0.99566186  0.20915154     0.08900
H3088       H  0.72509785  0.87917601  0.18718710     0.08900
H3089       H  0.75030946  0.90823853  0.21529309     0.08900
H3090       H  0.76130791  0.92390937  0.18080789     0.05600
C3091       C  0.71064092  0.92913707  0.28708911    -0.20200
C3092       C  0.67581575  0.90356429  0.27823622    -0.06700
C3093       C  0.64579125  0.90627403  0.28732763     0.14100
C3094       C  0.65149333  0.93571579  0.30308158    -0.20200
C3095       C  0.68562465  0.95948423  0.31397295    -0.06700
C3096       C  0.71562834  0.95571641  0.30618826     0.14100
C3097       C  0.75221205  0.97671574  0.31922246    -0.23600
H3098       H  0.73358836  0.92639019  0.28090649     0.15400
H3099       H  0.62830052  0.93784762  0.30962605     0.15400
C3100       C  0.60742117  0.87690078  0.28255938    -0.23500
H3101       H  0.76090548  0.95778097  0.32689173     0.05700
H3102       H  0.75179715  0.99229896  0.33690206     0.08900
H3103       H  0.77234837  0.49525852  0.30404491     0.08900
H3104       H  0.60317904  0.85163076  0.29223658     0.08900
H3105       H  0.60178262  0.87272432  0.26065774     0.08900
H3106       H  0.58737080  0.88328453  0.29158312     0.05600
C3107       C  0.75034002  0.79241884  0.29639384    -0.20200
C3108       C  0.75644689  0.80772417  0.32258724    -0.06700
C3109       C  0.73383404  0.82201165  0.33022027     0.14100
C3110       C  0.71635005  0.83101766  0.31017073    -0.20200
C3111       C  0.71092289  0.81673535  0.28380402    -0.06700
C3112       C  0.72436137  0.79273401  0.27871763     0.14100
C3113       C  0.70929730  0.76405880  0.25718596    -0.23600
H3114       H  0.76379265  0.77832827  0.28957385     0.15400
H3115       H  0.70531641  0.84779683  0.31623441     0.15400
C3116       C  0.72411811  0.82472930  0.35933260    -0.23500
H3117       H  0.69973882  0.73724356  0.26684058     0.05700
H3118       H  0.73067994  0.76873646  0.24211938     0.08900
H3119       H  0.68546976  0.76239566  0.24692281     0.08900
H3120       H  0.73504661  0.85344522  0.36492252     0.08900
H3121       H  0.73362957  0.81143804  0.37387672     0.08900
H3122       H  0.69412605  0.81042363  0.36155042     0.05600
C3123       C  0.53365462  0.75163535  0.29632986    -0.20200
C3124       C  0.54129250  0.72859537  0.31182877    -0.06700
C3125       C  0.57422970  0.72887585  0.30662963     0.14100
C3126       C  0.60144988  0.75708646  0.29158134    -0.20200
C3127       C  0.59441090  0.78068155  0.27658681    -0.06700
C3128       C  0.55913977  0.77625386  0.27753157     0.14100
C3129       C  0.54751195  0.79700827  0.25951992    -0.23600
H3130       H  0.50841306  0.75140038  0.29921681     0.15400
H3131       H  0.62778711  0.75905032  0.28998422     0.15400
C3132       C  0.58129202  0.69931543  0.31603152    -0.23500
H3133       H  0.53708001  0.81146150  0.27196936     0.05700
H3134       H  0.52591078  0.77791231  0.24586723     0.08900
H3135       H  0.56962056  0.81679729  0.24642449     0.08900
H3136       H  0.55684312  0.67589210  0.32492589     0.08900
H3137       H  0.60359337  0.71015431  0.33108659     0.08900
H3138       H  0.58945509  0.68891726  0.29834539     0.05600
C3139       C  0.73761819  0.80131426  0.17987068    -0.20200
C3140       C  0.77386025  0.81964009  0.18779170    -0.06700
C3141       C  0.78371266  0.84084741  0.21146967     0.14100
C3142       C  0.75673074  0.84288892  0.22674625    -0.20200
C3143       C  0.71988859  0.82334074  0.21927199    -0.06700
C3144       C  0.71049084  0.80160921  0.19559099     0.14100
C3145       C  0.67236129  0.77715132  0.18626118    -0.23600
H3146       H  0.73030361  0.78675542  0.16083389     0.15400
H3147       H  0.76448454  0.86016182  0.24439838     0.15400
C3148       C  0.82273474  0.86211291  0.22002679    -0.23500
H3149       H  0.66764347  0.74935479  0.18355028     0.05700
H3150       H  0.66769278  0.78705757  0.16664837     0.08900
H3151       H  0.65249806  0.77515222  0.20115500     0.08900
H3152       H  0.83912026  0.88171829  0.20380534     0.08900
H3153       H  0.83333549  0.84346092  0.22369469     0.08900
H3154       H  0.82589837  0.87734004  0.23900131     0.05600
C3155       C  0.55272731  0.72311939  0.20004588    -0.20200
C3156       C  0.53899137  0.73741738  0.18094528    -0.06700
C3157       C  0.55404214  0.77514251  0.17891055     0.14100
C3158       C  0.58289855  0.79780571  0.19601965    -0.20200
C3159       C  0.59729865  0.78348447  0.21475354    -0.06700
C3160       C  0.58226435  0.74545974  0.21632316     0.14100
C3161       C  0.59842829  0.72723079  0.23273137    -0.23600
H3162       H  0.54216096  0.69416736  0.20061222     0.15400
H3163       H  0.59445713  0.82683657  0.19469292     0.15400
C3164       C  0.53999879  0.79123968  0.15837430    -0.23500
H3165       H  0.60523922  0.71083587  0.21909476     0.05700
H3166       H  0.57843211  0.70893728  0.24806803     0.08900
H3167       H  0.62381822  0.74665405  0.24290213     0.08900
H3168       H  0.51069347  0.78087666  0.16214291     0.08900
H3169       H  0.54368882  0.78369858  0.13755457     0.08900
H3170       H  0.55447503  0.82118038  0.15955528     0.05600
C3171       C  0.88811240  0.81099280  0.44426927    -0.20200
C3172       C  0.92177155  0.84259313  0.44026289    -0.06700
C3173       C  0.92782583  0.86283030  0.41597753     0.14100
C3174       C  0.89988250  0.85170474  0.39701783    -0.20200
C3175       C  0.86537729  0.82206695  0.40206694    -0.06700
C3176       C  0.85967851  0.80065053  0.42548991     0.14100
C3177       C  0.82352418  0.76747290  0.43090008    -0.23600
H3178       H  0.88351607  0.79531522  0.46271473     0.15400
H3179       H  0.90466007  0.86724397  0.37846191     0.15400
C3180       C  0.96318264  0.89644701  0.40917378    -0.23500
H3181       H  0.82341327  0.75415183  0.45034971     0.05700
H3182       H  0.81712231  0.74777881  0.41427306     0.08900
H3183       H  0.80201796  0.77480742  0.43199325     0.08900
H3184       H  0.98419505  0.90353441  0.42478439     0.08900
H3185       H  0.95852802  0.91964298  0.40681657     0.08900
H3186       H  0.97400018  0.89252406  0.38972871     0.05600
C3187       C  0.63697503  0.94795822  0.42671344    -0.20200
C3188       C  0.62595546  0.95146425  0.40065158    -0.06700
C3189       C  0.58872247  0.93283001  0.39418835     0.14100
C3190       C  0.56319948  0.91532690  0.41499686    -0.20200
C3191       C  0.57408260  0.91429907  0.44166626    -0.06700
C3192       C  0.61136860  0.92834431  0.44710597     0.14100
C3193       C  0.62510900  0.92277094  0.47376724    -0.23600
H3194       H  0.66567510  0.96069271  0.43117652     0.15400
H3195       H  0.53464169  0.90250597  0.41043501     0.15400
C3196       C  0.57589817  0.93157598  0.36547426    -0.23500
H3197       H  0.63951073  0.90752965  0.47022137     0.05700
H3198       H  0.60302764  0.90717551  0.48862717     0.08900
H3199       H  0.64470678  0.94930341  0.48258859     0.08900
H3200       H  0.58626440  0.91769990  0.35231277     0.08900
H3201       H  0.58585898  0.95924112  0.35744883     0.08900
H3202       H  0.54583577  0.91651965  0.36422108     0.05600
C3203       C  0.63603189  0.96781158  0.06917558    -0.20200
C3204       C  0.62965598  0.95541004  0.09618894    -0.06700
C3205       C  0.59589385  0.92431490  0.10277638     0.14100
C3206       C  0.56972529  0.90731407  0.08228579    -0.20200
C3207       C  0.57491604  0.92279053  0.05630091    -0.06700
C3208       C  0.60794816  0.95445498  0.05016354     0.14100
C3209       C  0.61268830  0.97626494  0.02477056    -0.23600
H3210       H  0.66204259  0.49060494  0.06367522     0.15400
H3211       H  0.54406822  0.88336615  0.08708497     0.15400
C3212       C  0.58620494  0.91013543  0.13148757    -0.23500
H3213       H  0.64117252  0.49832899  0.02192715     0.05700
H3214       H  0.59532497  0.98874491  0.02624867     0.08900
H3215       H  0.60433168  0.45892493  0.00666167     0.08900
H3216       H  0.58904018  0.93196440  0.14513764     0.08900
H3217       H  0.60388325  0.89964490  0.13853654     0.08900
H3218       H  0.55776847  0.88756253  0.13310009     0.05600
C3219       C  0.85909606  0.82685847  0.07389774    -0.20200
C3220       C  0.87035309  0.82901332  0.10099486    -0.06700
C3221       C  0.90668560  0.83830508  0.10631234     0.14100
C3222       C  0.93108609  0.84707739  0.08450257    -0.20200
C3223       C  0.92023021  0.84724742  0.05770187    -0.06700
C3224       C  0.88380273  0.83663745  0.05221769     0.14100
C3225       C  0.87115643  0.83596826  0.02355971    -0.23600
H3226       H  0.83109178  0.81879984  0.06977775     0.15400
H3227       H  0.95910507  0.85487748  0.08840905     0.15400
C3228       C  0.92035545  0.84026035  0.13485032    -0.23500
H3229       H  0.84176325  0.82692720  0.02284467     0.05700
H3230       H  0.87600294  0.81715607  0.01116879     0.08900
H3231       H  0.88626512  0.86345672  0.01446752     0.08900
H3232       H  0.90666285  0.81305471  0.14437642     0.08900
H3233       H  0.91523835  0.85879502  0.14729164     0.08900
H3234       H  0.94996707  0.85029345  0.13513598     0.05600
C3235       C  0.93467025  0.60174633  0.05914350    -0.20200
C3236       C  0.94534568  0.57563578  0.05818041    -0.06700
C3237       C  0.96827379  0.57517366  0.07884302     0.14100
C3238       C  0.97888364  0.60012417  0.10016621    -0.20200
C3239       C  0.96852429  0.62650167  0.10089251    -0.06700
C3240       C  0.94648621  0.62752378  0.07985833     0.14100
C3241       C  0.93583839  0.65610087  0.07871679    -0.23600
H3242       H  0.91737861  0.60236756  0.04328198     0.15400
H3243       H  0.49640978  0.59987415  0.11597524     0.15400
C3244       C  0.98150320  0.54843032  0.07884937    -0.23500
H3245       H  0.92203663  0.65524982  0.05939312     0.05700
H3246       H  0.96008963  0.68339316  0.08051097     0.08900
H3247       H  0.91651533  0.65117458  0.09535757     0.08900
H3248       H  0.99892462  0.55296036  0.06076279     0.08900
H3249       H  0.95804497  0.52052704  0.07869874     0.08900
H3250       H  0.49797530  0.55120632  0.09709266     0.05600
C3251       C  0.92588479  0.59452812  0.43527017    -0.20200
C3252       C  0.94278780  0.57382523  0.43938437    -0.06700
C3253       C  0.97157782  0.57926417  0.42183650     0.14100
C3254       C  0.98190968  0.60456561  0.40070149    -0.20200
C3255       C  0.96711451  0.62724302  0.39812733    -0.06700
C3256       C  0.93815224  0.62170818  0.41537513     0.14100
C3257       C  0.42043451  0.64465829  0.41435966    -0.23600
H3258       H  0.90378654  0.59062900  0.44848503     0.15400
H3259       H  0.00297894  0.60784766  0.38665564     0.15400
C3260       C  0.99224602  0.55938585  0.42515427    -0.23500
H3261       H  0.42205798  0.65654943  0.43467234     0.05700
H3262       H  0.39144634  0.62758277  0.40885375     0.08900
H3263       H  0.43338633  0.66735698  0.39970245     0.08900
H3264       H  0.97368778  0.52999198  0.42369648     0.08900
H3265       H  0.00595719  0.56577421  0.44511006     0.08900
H3266       H  0.01355141  0.56716855  0.40930612     0.05600
C3267       C  0.86621779  0.90283115  0.39712871    -0.20200
C3268       C  0.83459629  0.86988392  0.40212272    -0.06700
C3269       C  0.81575463  0.86426642  0.42699981     0.14100
C3270       C  0.83007854  0.89134582  0.44679126    -0.20200
C3271       C  0.86296916  0.92343411  0.44239337    -0.06700
C3272       C  0.88106662  0.92936365  0.41718420     0.14100
C3273       C  0.91578922  0.96381646  0.41121680    -0.23600
H3274       H  0.87999662  0.90725489  0.37775136     0.15400
H3275       H  0.81588718  0.88705887  0.46598204     0.15400
C3276       C  0.78057931  0.83022808  0.43325657    -0.23500
H3277       H  0.92559917  0.96452555  0.39017101     0.05700
H3278       H  0.93716137  0.96629763  0.42533955     0.08900
H3279       H  0.91137274  0.98712893  0.41367005     0.08900
H3280       H  0.78385065  0.81707241  0.45167743     0.08900
H3281       H  0.75906787  0.83709792  0.43720441     0.08900
H3282       H  0.77131814  0.81051060  0.41643403     0.05600
C3283       C  0.81881450  0.87442189  0.08398503    -0.20200
C3284       C  0.84302175  0.87968558  0.10503409    -0.06700
C3285       C  0.87823853  0.91011451  0.10459086     0.14100
C3286       C  0.88931144  0.93323009  0.08205658    -0.20200
C3287       C  0.86560125  0.92741393  0.06051486    -0.06700
C3288       C  0.82973907  0.89791826  0.06155647     0.14100
C3289       C  0.80367572  0.88989756  0.03846758    -0.23600
H3290       H  0.79189216  0.85082295  0.08451921     0.15400
H3291       H  0.91659604  0.95620542  0.08144946     0.15400
C3292       C  0.90464651  0.91897197  0.12753386    -0.23500
H3293       H  0.77758455  0.86452923  0.04205420     0.05700
H3294       H  0.81572220  0.88682695  0.01934136     0.08900
H3295       H  0.79756758  0.91211018  0.03610076     0.10300
H3296       H  0.92887590  0.91817022  0.12013400     0.08900
H3297       H  0.89276278  0.90015216  0.14501252     0.08900
H3298       H  0.91330991  0.94654306  0.13504837     0.05600
C3299       C  0.58518871  0.65574404  0.08382062    -0.20200
C3300       C  0.57649658  0.65824697  0.05675161    -0.06700
C3301       C  0.55445884  0.67327463  0.05078500     0.14100
C3302       C  0.54005126  0.68391344  0.07191717    -0.20200
C3303       C  0.54611775  0.67862447  0.09897792    -0.06700
C3304       C  0.57000995  0.66565046  0.10517279     0.14100
C3305       C  0.07788683  0.66044553  0.13414227    -0.23600
H3306       H  0.60221894  0.64421074  0.08827729     0.15400
H3307       H  0.52210309  0.69433214  0.06737810     0.15400
C3308       C  0.54557974  0.67749423  0.02210703    -0.23500
H3309       H  0.09628253  0.64908968  0.13526253     0.05700
H3310       H  0.05227499  0.64159817  0.14488297     0.08900
H3311       H  0.09117125  0.68678496  0.14475566     0.08900
H3312       H  0.53092154  0.65056122  0.01239299     0.08900
H3313       H  0.57130485  0.69531879  0.01111255     0.08900
H3314       H  0.52811471  0.68990676  0.02089521     0.05600
C3315       C  0.55569016  0.67379394  0.44831541    -0.20200
C3316       C  0.57658958  0.65831898  0.44080645    -0.06700
C3317       C  0.58418570  0.65683630  0.41312880     0.14100
C3318       C  0.56835789  0.66852875  0.39352351    -0.20200
C3319       C  0.54506819  0.68142365  0.40119292    -0.06700
C3320       C  0.54064960  0.68634209  0.42888439     0.14100
C3321       C  0.52036755  0.70496728  0.43791072    -0.23600
H3322       H  0.55027823  0.67528940  0.46937335     0.15400
H3323       H  0.57199230  0.66511762  0.37218393     0.15400
C3324       C  0.60731394  0.64121332  0.40430594    -0.23500
H3325       H  0.51994359  0.70692677  0.46038800     0.05700
H3326       H  0.99201204  0.69018156  0.43087224     0.08900
H3327       H  0.53374559  0.73274332  0.42929719     0.08900
H3328       H  0.59483790  0.61279790  0.41134557     0.08900
H3329       H  0.63478431  0.65706324  0.41320733     0.08900
H3330       H  0.61021004  0.64168914  0.38185561     0.05600
C3331       C  0.62080631  0.52548560  0.40054123    -0.20200
C3332       C  0.65589631  0.53044498  0.40146644    -0.06700
C3333       C  0.67954649  0.55166223  0.42227873     0.14100
C3334       C  0.66753045  0.56745598  0.44164351    -0.20200
C3335       C  0.63225455  0.56240912  0.44091208    -0.06700
C3336       C  0.60859325  0.54120332  0.41977801     0.14100
C3337       C  0.57093332  0.53543957  0.41574354    -0.23600
H3338       H  0.60290316  0.50976671  0.38426572     0.15400
H3339       H  0.68572410  0.58351029  0.45773027     0.15400
C3340       C  0.71723829  0.55711840  0.42433085    -0.23500
H3341       H  0.56871074  0.54406599  0.39485952     0.05700
H3342       H  0.56366951  0.55093112  0.42971925     0.08900
H3343       H  0.55071310  0.50629692  0.41818226     0.08900
H3344       H  0.73310704  0.57105238  0.40581394     0.08900
H3345       H  0.71575073  0.53055406  0.42644757     0.08900
H3346       H  0.73194710  0.57379350  0.44216346     0.05600
C3347       C  0.61781863  0.52735866  0.10012586    -0.20200
C3348       C  0.65337676  0.53359850  0.10044363    -0.06700
C3349       C  0.67827945  0.55585546  0.08013839     0.14100
C3350       C  0.66694588  0.57123060  0.06008414    -0.20200
C3351       C  0.63110881  0.56423587  0.05911194    -0.06700
C3352       C  0.60623329  0.54228331  0.07965314     0.14100
C3353       C  0.56780198  0.53510072  0.08062529    -0.23600
H3354       H  0.59892999  0.51018178  0.11570762     0.15400
H3355       H  0.68609549  0.58781451  0.04440733     0.15400
C3356       C  0.71629675  0.56204383  0.07780330    -0.23500
H3357       H  0.55306659  0.51924352  0.09896253     0.05700
H3358       H  0.55264669  0.51930876  0.06262136     0.08900
H3359       H  0.56782537  0.56107435  0.08112989     0.08900
H3360       H  0.72218399  0.54641868  0.09289050     0.08900
H3361       H  0.73613308  0.59121231  0.08030274     0.08900
H3362       H  0.72022956  0.55354227  0.05739132     0.05600
C3363       C  0.78577858  0.71804281  0.21493558    -0.20200
C3364       C  0.82011045  0.72584759  0.22407636    -0.06700
C3365       C  0.85104074  0.75812465  0.21541957     0.14100
C3366       C  0.84662228  0.78303427  0.19981889    -0.20200
C3367       C  0.81279434  0.77439883  0.18899157    -0.06700
C3368       C  0.78199440  0.74092196  0.19617423     0.14100
C3369       C  0.74579069  0.72693844  0.18274139    -0.23600
H3370       H  0.76225044  0.69248996  0.22061281     0.15400
H3371       H  0.87045512  0.80794362  0.19342762     0.15400
C3372       C  0.88894655  0.76500627  0.22000895    -0.23500
H3373       H  0.73673558  0.69968218  0.17435199     0.05700
H3374       H  0.74696014  0.74411925  0.16550758     0.08900
H3375       H  0.72549120  0.72499594  0.19786133     0.08900
H3376       H  0.89262845  0.74478741  0.20863509     0.08900
H3377       H  0.89406603  0.76314709  0.24174109     0.08900
H3378       H  0.90984188  0.79213552  0.21255730     0.05600
C3379       C  0.83658575  0.75631301  0.28481518    -0.20200
C3380       C  0.81375459  0.71876238  0.28565126    -0.06700
C3381       C  0.78284250  0.70409511  0.30290201     0.14100
C3382       C  0.77695538  0.72714129  0.31985419    -0.20200
C3383       C  0.80070425  0.76454457  0.31945036    -0.06700
C3384       C  0.83026812  0.77934821  0.30104015     0.14100
C3385       C  0.85668938  0.81935870  0.29875509    -0.23600
H3386       H  0.86023207  0.76807154  0.27198096     0.15400
H3387       H  0.75465322  0.71585751  0.33429462     0.15400
C3388       C  0.75601368  0.66430344  0.30367475    -0.23500
H3389       H  0.88421976  0.82494849  0.30446099     0.05700
H3390       H  0.84946248  0.83581954  0.31185204     0.08900
H3391       H  0.85741025  0.82832531  0.27743519     0.08900
H3392       H  0.76903822  0.64962320  0.31217698     0.08900
H3393       H  0.74598109  0.65469029  0.28286156     0.08900
H3394       H  0.73223170  0.65793155  0.31675400     0.05600
C3395       C  0.90957280  0.70134803  0.30401787    -0.20200
C3396       C  0.89714648  0.67662539  0.28253750    -0.06700
C3397       C  0.91395749  0.65560159  0.27774810     0.14100
C3398       C  0.94351148  0.66110054  0.29381011    -0.20200
C3399       C  0.95587761  0.68597134  0.31509449    -0.06700
C3400       C  0.93855570  0.70616320  0.32037243     0.14100
C3401       C  0.95020565  0.73229085  0.34370001    -0.23600
H3402       H  0.89670129  0.71729265  0.30782593     0.15400
H3403       H  0.95574490  0.64444180  0.29067640     0.15400
C3404       C  0.90052883  0.62580962  0.25708191    -0.23500
H3405       H  0.93402182  0.74608744  0.34482768     0.05700
H3406       H  0.97916281  0.75326197  0.34125023     0.08900
H3407       H  0.94664129  0.71768485  0.36318098     0.08900
H3408       H  0.92176012  0.63258686  0.24136013     0.08900
H3409       H  0.87525288  0.62076079  0.24702067     0.08900
H3410       H  0.89462062  0.60019447  0.26726575     0.05600
C3411       C  0.88892849  0.66757336  0.19298016    -0.20200
C3412       C  0.89833122  0.68409251  0.21851170    -0.06700
C3413       C  0.93581857  0.70763001  0.22344224     0.14100
C3414       C  0.96179051  0.70702855  0.20588685    -0.20200
C3415       C  0.95209211  0.69070415  0.18002599    -0.06700
C3416       C  0.91503972  0.67577734  0.17283449     0.14100
C3417       C  0.90238820  0.67306834  0.14399064    -0.23600
H3418       H  0.86084323  0.65031944  0.18746947     0.15400
H3419       H  0.98937536  0.72098220  0.21261199     0.15400
C3420       C  0.94973201  0.73618728  0.24496539    -0.23500
H3421       H  0.88550670  0.68607589  0.14214868     0.05700
H3422       H  0.88562079  0.64432069  0.13807249     0.08900
H3423       H  0.92554952  0.68816692  0.12990207     0.08900
H3424       H  0.96683888  0.76298616  0.23522444     0.08900
H3425       H  0.92785973  0.73793787  0.25560839     0.08900
H3426       H  0.96617809  0.73109005  0.25984451     0.05600
C3427       C  0.73854099  0.58287937  0.27732069    -0.20200
C3428       C  0.77595997  0.59947390  0.28264035    -0.06700
C3429       C  0.78754007  0.58636213  0.30479705     0.14100
C3430       C  0.76163100  0.55936526  0.32178708    -0.20200
C3431       C  0.72451544  0.54292171  0.31648718    -0.06700
C3432       C  0.71276252  0.55452296  0.29373812     0.14100
C3433       C  0.67329250  0.53827399  0.28668548    -0.23600
H3434       H  0.72922590  0.59256991  0.26054439     0.15400
H3435       H  0.77051908  0.55160689  0.33990176     0.15400
C3436       C  0.82688328  0.59886556  0.31032607    -0.23500
H3437       H  0.66554973  0.55948553  0.28740859     0.05700
H3438       H  0.65520961  0.51610275  0.30071384     0.08900
H3439       H  0.66873699  0.02709664  0.26582635     0.08900
H3440       H  0.84107784  0.62638023  0.31879631     0.08900
H3441       H  0.84039114  0.59769748  0.29149051     0.08900
H3442       H  0.82989144  0.58122437  0.32548072     0.05600
C3443       C  0.74214894  0.54036159  0.20374048    -0.20200
C3444       C  0.73119910  0.55029496  0.17963969    -0.06700
C3445       C  0.74908006  0.58820020  0.17390239     0.14100
C3446       C  0.76725555  0.61309444  0.19453851    -0.20200
C3447       C  0.77819193  0.60319948  0.21829291    -0.06700
C3448       C  0.76820066  0.56630542  0.22128156     0.14100
C3449       C  0.78656345  0.55331201  0.24067821    -0.23600
H3450       H  0.73275588  0.51271246  0.20885509     0.15400
H3451       H  0.77561559  0.64112753  0.19063826     0.15400
C3452       C  0.75496869  0.60415017  0.14566239    -0.23500
H3453       H  0.79660495  0.53763092  0.22934484     0.05700
H3454       H  0.76703354  0.53545568  0.25644874     0.08900
H3455       H  0.81059681  0.57582971  0.25024055     0.08900
H3456       H  0.73922098  0.61818926  0.14282045     0.08900
H3457       H  0.74839115  0.58364466  0.12983552     0.08900
H3458       H  0.78417979  0.62418365  0.14260472     0.05600
C3459       C  0.83062722  0.66674915  0.77867874     0.45600
H3460       H  0.83042352  0.66623300  0.80114523    -0.03400
C3461       C  0.83121657  0.67077335  0.72626749     0.45700
H3462       H  0.83143653  0.67403820  0.70398126    -0.03400
C3463       C  0.80214115  0.63108190  0.76552468    -0.17100
C3464       C  0.82242240  0.69580137  0.76778861    -0.16900
C3465       C  0.86713553  0.67455723  0.76559418    -0.17200
C3466       C  0.80246579  0.63298462  0.73740099    -0.17200
C3467       C  0.82369015  0.69826090  0.74010524    -0.16800
C3468       C  0.86776040  0.67763725  0.73761311    -0.17100
O3469       O  0.64483627  0.61038096  0.52601413    -0.71600
O3470       O  0.61905030  0.65674799  0.97156220    -0.71900
O3471       O  0.61931330  0.65617956  0.52651573    -0.71700
O3472       O  0.64474409  0.61077008  0.97121165    -0.71700
O3473       O  0.59032980  0.56443310  0.97268107    -0.71700
O3474       O  0.56373792  0.61153148  0.52550908    -0.71700
O3475       O  0.56448156  0.61035232  0.97112090    -0.71600
O3476       O  0.58934671  0.56595416  0.52741740    -0.71800
V3477       V  0.63096121  0.63264910  0.99880462     1.35200
V3478       V  0.57807200  0.58893796  0.99912155     1.35200
C3479       C  0.62121290  0.58081837  0.53663530     0.77600
C3480       C  0.58732029  0.64117064  0.96199362     0.77700
C3481       C  0.58710457  0.64142897  0.53535051     0.77500
C3482       C  0.62181951  0.57991678  0.96236700     0.77500
O3483       O  0.91029306  0.96341288  0.52765575    -0.71600
O3484       O  0.94787762  0.53419735  0.97162015    -0.71900
O3485       O  0.94902688  0.53526972  0.52639961    -0.71700
O3486       O  0.90931136  0.96212898  0.97289116    -0.71700
O3487       O  0.85907545  0.96365799  0.97369485    -0.71700
O3488       O  0.89957481  0.53808351  0.52647964    -0.71700
O3489       O  0.89792030  0.53597669  0.97180408    -0.71600
O3490       O  0.86057914  0.96591655  0.52808340    -0.71800
V3491       V  0.92815289  0.99877684  0.49962541     1.35200
V3492       V  0.88027625  0.00091541  0.99998916     1.35200
C3493       C  0.87917458  0.95297870  0.53758736     0.77600
C3494       C  0.92910927  0.54685031  0.96183214     0.77700
C3495       C  0.93085598  0.54863648  0.53603918     0.77500
C3496       C  0.87763015  0.95070919  0.96401319     0.77500
O3497       O  0.96141174  0.88743191  0.97105970    -0.71600
O3498       O  0.53365696  0.92545068  0.52528867    -0.71900
O3499       O  0.53404425  0.92181055  0.97096839    -0.71700
O3500       O  0.96074763  0.89028559  0.52545805    -0.71700
O3501       O  0.95925834  0.83877763  0.52790582    -0.71700
O3502       O  0.53332231  0.87072432  0.97393553    -0.71700
O3503       O  0.53208812  0.87401824  0.52868638    -0.71600
O3504       O  0.95992544  0.83595308  0.97309462    -0.71800
V3505       V  0.99741109  0.90517529  0.99827830     1.35200
V3506       V  0.99612838  0.85579568  0.50084053     1.35200
C3507       C  0.94878694  0.85565586  0.96242005     0.77600
C3508       C  0.54543773  0.90654460  0.53609938     0.77700
C3509       C  0.54624845  0.90172651  0.96328429     0.77500
C3510       C  0.94767997  0.85916836  0.53596148     0.77500
C3511       C  0.97864927  0.68786931  0.66071176     0.02400
C3512       C  0.51684257  0.71275389  0.65916277     0.02400
C3513       C  0.53777193  0.70949134  0.63846828    -0.18100
C3514       C  0.52271226  0.68146935  0.61988807     0.02400
C3515       C  0.98551947  0.65584975  0.62142290     0.02400
C3516       C  0.96451444  0.65842271  0.64232654    -0.18100
H3517       H  0.93664051  0.63692411  0.64405002     0.04400
H3518       H  0.56674477  0.72834145  0.63749617     0.04400
C3519       C  0.80072217  0.82215187  0.66748706     0.02400
C3520       C  0.81386419  0.79756959  0.66596896     0.02400
C3521       C  0.83464839  0.79898125  0.64319825    -0.18100
C3522       C  0.84499635  0.82578579  0.62323390     0.02400
C3523       C  0.83240587  0.85058009  0.62528283     0.02400
C3524       C  0.80988819  0.84803795  0.64685183    -0.18100
H3525       H  0.79965455  0.86670110  0.64773531     0.04400
H3526       H  0.84415147  0.77980618  0.64166342     0.04400
C3527       C  0.51868723  0.70823276  0.83589238     0.02400
C3528       C  0.98059177  0.68450426  0.83546974     0.02400
C3529       C  0.96415882  0.65898766  0.85646474    -0.18100
C3530       C  0.98436338  0.65761053  0.87833454     0.02400
C3531       C  0.52153402  0.68391588  0.88018516     0.02400
C3532       C  0.53763998  0.70975582  0.85969229    -0.18100
H3533       H  0.56637816  0.72915378  0.86114646     0.04400
H3534       H  0.93537584  0.63954019  0.85550229     0.04400
C3535       C  0.78579855  0.81018387  0.84178552     0.02400
C3536       C  0.80054039  0.78648031  0.84246988     0.02400
C3537       C  0.82411564  0.78922775  0.86360504    -0.18100
C3538       C  0.83564017  0.81611974  0.88318516     0.02400
C3539       C  0.82334696  0.84103284  0.88169479     0.02400
C3540       C  0.80045124  0.83893137  0.86060728    -0.18100
H3541       H  0.79400012  0.86032391  0.85914503     0.04400
H3542       H  0.83597225  0.77190714  0.86355211     0.04400
C3543       C  0.69929061  0.51837608  0.83771104     0.02400
C3544       C  0.68527183  0.98049921  0.83788905     0.02400
C3545       C  0.66362717  0.95994636  0.85995128    -0.18100
C3546       C  0.65348090  0.97546722  0.88054356     0.02400
C3547       C  0.66712920  0.51306523  0.88041387     0.02400
C3548       C  0.69042743  0.53417728  0.85925784    -0.18100
H3549       H  0.70097769  0.56310666  0.85915364     0.04400
H3550       H  0.65228933  0.93087901  0.86007320     0.04400
C3551       C  0.70239657  0.52273559  0.66048226     0.02400
C3552       C  0.69221516  0.98541554  0.65802401     0.02400
C3553       C  0.67073969  0.96503768  0.63592756    -0.18100
C3554       C  0.65577697  0.97899334  0.61754422     0.02400
C3555       C  0.66362237  0.51492099  0.62102679     0.02400
C3556       C  0.68430593  0.53495786  0.64315775    -0.18100
H3557       H  0.68693840  0.56115782  0.64620740     0.04400
H3558       H  0.66412492  0.93719494  0.63389012     0.04400
C3559       C  0.66559723  0.83702214  0.72150620     0.45600
H3560       H  0.66698930  0.83754261  0.69899688    -0.03400
C3561       C  0.66059644  0.83563501  0.77398796     0.45700
H3562       H  0.65669378  0.83493063  0.79625711    -0.03400
C3563       C  0.62758136  0.80898925  0.73252210    -0.17100
C3564       C  0.69227270  0.82736937  0.73562345    -0.16900
C3565       C  0.67433443  0.87370689  0.73352808    -0.17200
C3566       C  0.62516809  0.80863852  0.76022017    -0.17200
C3567       C  0.68934271  0.82591803  0.76382509    -0.16800
C3568       C  0.67103704  0.87266466  0.76133073    -0.17100
C3569       C  0.66160128  0.92212849  0.71820134    -0.20200
C3570       C  0.68326564  0.90607964  0.71608123    -0.06700
C3571       C  0.71197985  0.92042164  0.69674962     0.14100
C3572       C  0.71620393  0.94819487  0.67890283    -0.20200
C3573       C  0.69329298  0.96287592  0.68057043    -0.06700
C3574       C  0.66651281  0.95050777  0.70113067     0.14100
C3575       C  0.64217305  0.96645743  0.70452545    -0.23600
H3576       H  0.63969561  0.91174877  0.73257929     0.15400
H3577       H  0.73673807  0.95778952  0.66307701     0.15400
C3578       C  0.73859334  0.90710613  0.69495686    -0.23500
H3579       H  0.62242752  0.95336573  0.72142830     0.05700
H3580       H  0.62668325  0.96301940  0.68562201     0.08900
H3581       H  0.65880186  0.99566165  0.70915143     0.08900
H3582       H  0.72509798  0.87917599  0.68718696     0.08900
H3583       H  0.75030970  0.90823866  0.71529283     0.08900
H3584       H  0.76130798  0.92390933  0.68080758     0.05600
C3585       C  0.71064138  0.92913709  0.78708906    -0.20200
C3586       C  0.67581621  0.90356445  0.77823609    -0.06700
C3587       C  0.64579178  0.90627431  0.78732751     0.14100
C3588       C  0.65149396  0.93571610  0.80308146    -0.20200
C3589       C  0.68562529  0.95948439  0.81397288    -0.06700
C3590       C  0.71562891  0.95571642  0.80618822     0.14100
C3591       C  0.75221262  0.97671560  0.81922247    -0.23600
H3592       H  0.73358879  0.92639009  0.78090645     0.15400
H3593       H  0.62830121  0.93784801  0.80962593     0.15400
C3594       C  0.60742166  0.87690110  0.78255936    -0.23500
H3595       H  0.76090583  0.95778070  0.82689183     0.05700
H3596       H  0.75179781  0.99229896  0.83690200     0.08900
H3597       H  0.77234808  0.49525946  0.80404438     0.08900
H3598       H  0.60317952  0.85163109  0.79223659     0.08900
H3599       H  0.60178299  0.87272453  0.76065773     0.08900
H3600       H  0.58737136  0.88328493  0.79158312     0.05600
C3601       C  0.75034037  0.79241899  0.79639378    -0.20200
C3602       C  0.75644741  0.80772437  0.82258715    -0.06700
C3603       C  0.73383474  0.82201208  0.83022018     0.14100
C3604       C  0.71635068  0.83101809  0.81017066    -0.20200
C3605       C  0.71092333  0.81673556  0.78380399    -0.06700
C3606       C  0.72436171  0.79273414  0.77871762     0.14100
C3607       C  0.70929753  0.76405882  0.75718602    -0.23600
H3608       H  0.76379294  0.77832831  0.78957377     0.15400
H3609       H  0.70531716  0.84779733  0.81623428     0.15400
C3610       C  0.72411906  0.82473006  0.85933251    -0.23500
H3611       H  0.69973906  0.73724362  0.76684070     0.05700
H3612       H  0.73068009  0.76873638  0.74211940     0.08900
H3613       H  0.68546994  0.76239566  0.74692293     0.08900
H3614       H  0.73504775  0.85344605  0.86492229     0.08900
H3615       H  0.73363047  0.81143880  0.87387667     0.08900
H3616       H  0.69412702  0.81042457  0.86155043     0.05600
C3617       C  0.53365486  0.75163560  0.79632998    -0.20200
C3618       C  0.54129265  0.72859556  0.81182892    -0.06700
C3619       C  0.57422985  0.72887601  0.80662984     0.14100
C3620       C  0.60145006  0.75708662  0.79158158    -0.20200
C3621       C  0.59441122  0.78068173  0.77658698    -0.06700
C3622       C  0.55914010  0.77625409  0.77753171     0.14100
C3623       C  0.54751234  0.79700852  0.75952004    -0.23600
H3624       H  0.50841333  0.75140066  0.79921688     0.15400
H3625       H  0.62778732  0.75905043  0.78998449     0.15400
C3626       C  0.58129206  0.69931550  0.81603171    -0.23500
H3627       H  0.53708049  0.81146185  0.77196946     0.05700
H3628       H  0.52591111  0.77791256  0.74586738     0.08900
H3629       H  0.56962095  0.81679746  0.74642456     0.08900
H3630       H  0.55684311  0.67589216  0.82492599     0.08900
H3631       H  0.60359334  0.71015429  0.83108685     0.08900
H3632       H  0.58945523  0.68891741  0.79834559     0.05600
C3633       C  0.73761819  0.80131381  0.67987080    -0.20200
C3634       C  0.77386028  0.81963965  0.68779173    -0.06700
C3635       C  0.78371281  0.84084706  0.71146966     0.14100
C3636       C  0.75673101  0.84288885  0.72674622    -0.20200
C3637       C  0.71988882  0.82334067  0.71927199    -0.06700
C3638       C  0.71049094  0.80160891  0.69559112     0.14100
C3639       C  0.67236133  0.77715085  0.68626150    -0.23600
H3640       H  0.73030352  0.78675488  0.66083405     0.15400
H3641       H  0.76448488  0.86016183  0.74439826     0.15400
C3642       C  0.82273490  0.86211231  0.72002679    -0.23500
H3643       H  0.66764352  0.74935428  0.68355087     0.05700
H3644       H  0.66769268  0.78705677  0.66664858     0.08900
H3645       H  0.65249820  0.77515199  0.70115530     0.08900
H3646       H  0.83912054  0.88171760  0.70380533     0.08900
H3647       H  0.83333540  0.84346015  0.72369476     0.08900
H3648       H  0.82589862  0.87733953  0.73900129     0.05600
C3649       C  0.55272756  0.72311938  0.70004594    -0.20200
C3650       C  0.53899181  0.73741740  0.68094521    -0.06700
C3651       C  0.55404267  0.77514253  0.67891044     0.14100
C3652       C  0.58289896  0.79780571  0.69601963    -0.20200
C3653       C  0.59729888  0.78348444  0.71475365    -0.06700
C3654       C  0.58226451  0.74545970  0.71632332     0.14100
C3655       C  0.59842831  0.72723073  0.73273167    -0.23600
H3656       H  0.54216116  0.69416734  0.70061232     0.15400
H3657       H  0.59445761  0.82683657  0.69469285     0.15400
C3658       C  0.53999958  0.79123973  0.65837400    -0.23500
H3659       H  0.60523922  0.71083571  0.71909514     0.05700
H3660       H  0.57843205  0.70893730  0.74806831     0.08900
H3661       H  0.62381824  0.74665396  0.74290244     0.08900
H3662       H  0.51069423  0.78087678  0.66214243     0.08900
H3663       H  0.54368979  0.78369859  0.63755433     0.08900
H3664       H  0.55447587  0.82118044  0.65955495     0.05600
C3665       C  0.88811293  0.81099293  0.94426913    -0.20200
C3666       C  0.92177201  0.84259341  0.94026284    -0.06700
C3667       C  0.92782639  0.86283051  0.91597743     0.14100
C3668       C  0.89988323  0.85170475  0.89701758    -0.20200
C3669       C  0.86537803  0.82206685  0.90206658    -0.06700
C3670       C  0.85967919  0.80065050  0.92548960     0.14100
C3671       C  0.82352492  0.76747273  0.93089965    -0.23600
H3672       H  0.88351654  0.79531540  0.96271459     0.15400
H3673       H  0.90466085  0.86724396  0.87846163     0.15400
C3674       C  0.96318314  0.89644736  0.90917380    -0.23500
H3675       H  0.82341393  0.75415175  0.95034934     0.05700
H3676       H  0.81712336  0.74777865  0.91427267     0.08900
H3677       H  0.80201855  0.77480705  0.93199261     0.08900
H3678       H  0.98419539  0.90353497  0.92478459     0.08900
H3679       H  0.95852834  0.91964318  0.90681639     0.08900
H3680       H  0.97400099  0.89252445  0.88972887     0.05600
C3681       C  0.63697537  0.94795829  0.92671334    -0.20200
C3682       C  0.62595585  0.95146422  0.90065143    -0.06700
C3683       C  0.58872285  0.93283023  0.89418822     0.14100
C3684       C  0.56319978  0.91532749  0.91499679    -0.20200
C3685       C  0.57408290  0.91429975  0.94166622    -0.06700
C3686       C  0.61136887  0.92834471  0.94710592     0.14100
C3687       C  0.62510923  0.92277145  0.97376725    -0.23600
H3688       H  0.66567541  0.96069261  0.93117641     0.15400
H3689       H  0.53464205  0.90250679  0.91043494     0.15400
C3690       C  0.57589862  0.93157605  0.86547410    -0.23500
H3691       H  0.63951076  0.90752994  0.97022152     0.05700
H3692       H  0.60302786  0.90717629  0.98862723     0.08900
H3693       H  0.64470716  0.94930397  0.98258847     0.08900
H3694       H  0.58626472  0.91769972  0.85231275     0.08900
H3695       H  0.58585964  0.95924116  0.85744852     0.08900
H3696       H  0.54583622  0.91651990  0.86422090     0.05600
C3697       C  0.63603138  0.96781158  0.56917552    -0.20200
C3698       C  0.62965570  0.95541001  0.59618887    -0.06700
C3699       C  0.59589373  0.92431466  0.60277631     0.14100
C3700       C  0.56972519  0.90731373  0.58228574    -0.20200
C3701       C  0.57491568  0.92279006  0.55630087    -0.06700
C3702       C  0.60794766  0.95445467  0.55016346     0.14100
C3703       C  0.61268763  0.97626436  0.52477036    -0.23600
H3704       H  0.66204228  0.49060442  0.56367547     0.15400
H3705       H  0.54406817  0.88336563  0.58708497     0.15400
C3706       C  0.58620504  0.91013510  0.63148750    -0.23500
H3707       H  0.64117251  0.49832862  0.52192737     0.05700
H3708       H  0.59532422  0.98874425  0.52624836     0.08900
H3709       H  0.60433221  0.45892434  0.50666169     0.08900
H3710       H  0.58904011  0.93196394  0.64513762     0.08900
H3711       H  0.60388355  0.89964477  0.63853635     0.08900
H3712       H  0.55776865  0.88756201  0.63310004     0.05600
C3713       C  0.85909569  0.82685851  0.57389736    -0.20200
C3714       C  0.87035252  0.82901285  0.60099448    -0.06700
C3715       C  0.90668492  0.83830429  0.60631201     0.14100
C3716       C  0.93108547  0.84707649  0.58450229    -0.20200
C3717       C  0.92022978  0.84724706  0.55770160    -0.06700
C3718       C  0.88380247  0.83663772  0.55221738     0.14100
C3719       C  0.87115647  0.83596950  0.52355943    -0.23600
H3720       H  0.83109147  0.81880016  0.56977732     0.15400
H3721       H  0.95910432  0.85487622  0.58840879     0.15400
C3722       C  0.92035469  0.84025949  0.63485001    -0.23500
H3723       H  0.84176340  0.82692888  0.52284436     0.05700
H3724       H  0.87600274  0.81715743  0.51116816     0.08900
H3725       H  0.88626556  0.86345820  0.51446766     0.08900
H3726       H  0.90666195  0.81305386  0.64437613     0.08900
H3727       H  0.91523772  0.85879428  0.64729129     0.08900
H3728       H  0.94996627  0.85029242  0.63513571     0.05600
C3729       C  0.93466984  0.60174629  0.55914357    -0.20200
C3730       C  0.94534546  0.57563591  0.55818024    -0.06700
C3731       C  0.96827393  0.57517393  0.57884262     0.14100
C3732       C  0.97888383  0.60012435  0.60016587    -0.20200
C3733       C  0.96852425  0.62650166  0.60089243    -0.06700
C3734       C  0.94648588  0.62752369  0.57985844     0.14100
C3735       C  0.93583784  0.65610062  0.57871713    -0.23600
H3736       H  0.91737797  0.60236744  0.54328220     0.15400
H3737       H  0.49641034  0.59987439  0.61597494     0.15400
C3738       C  0.98150371  0.54843089  0.57884866    -0.23500
H3739       H  0.92203623  0.65524978  0.55939342     0.05700
H3740       H  0.96008895  0.68339297  0.58051154     0.08900
H3741       H  0.91651457  0.65117391  0.59535782     0.08900
H3742       H  0.99892500  0.55296118  0.56076195     0.08900
H3743       H  0.95804566  0.52052749  0.57869806     0.08900
H3744       H  0.49797553  0.55120634  0.59709248     0.05600
C3745       C  0.92588511  0.59452835  0.93527056    -0.20200
C3746       C  0.94278805  0.57382538  0.93938463    -0.06700
C3747       C  0.97157803  0.57926441  0.92183669     0.14100
C3748       C  0.98190989  0.60456600  0.90070180    -0.20200
C3749       C  0.96711475  0.62724346  0.89812773    -0.06700
C3750       C  0.93815253  0.62170853  0.91537562     0.14100
C3751       C  0.42043439  0.64465832  0.91435985    -0.23600
H3752       H  0.90378685  0.59062917  0.94848548     0.15400
H3753       H  0.00297911  0.60784807  0.88665585     0.15400
C3754       C  0.99224607  0.55938589  0.92515423    -0.23500
H3755       H  0.42205799  0.65654945  0.93467255     0.05700
H3756       H  0.39144619  0.62758286  0.90885401     0.08900
H3757       H  0.43338619  0.66735702  0.89970264     0.08900
H3758       H  0.97368772  0.52999206  0.92369627     0.08900
H3759       H  0.00595723  0.56577397  0.94511001     0.08900
H3760       H  0.01355145  0.56716868  0.90930605     0.05600
C3761       C  0.86621860  0.90283116  0.89712838    -0.20200
C3762       C  0.83459718  0.86988388  0.90212246    -0.06700
C3763       C  0.81575569  0.86426630  0.92699962     0.14100
C3764       C  0.83007968  0.89134568  0.94679104    -0.20200
C3765       C  0.86297015  0.92343404  0.94239309    -0.06700
C3766       C  0.88106748  0.92936367  0.91718385     0.14100
C3767       C  0.91578999  0.96381653  0.91121636    -0.23600
H3768       H  0.87999734  0.90725493  0.87775097     0.15400
H3769       H  0.81588840  0.88705867  0.96598191     0.15400
C3770       C  0.78058046  0.83022789  0.93325648    -0.23500
H3771       H  0.92559987  0.96452562  0.89017056     0.05700
H3772       H  0.93716221  0.96629780  0.92533908     0.08900
H3773       H  0.91137341  0.98712894  0.91366963     0.08900
H3774       H  0.78385198  0.81707224  0.95167728     0.08900
H3775       H  0.75906900  0.83709767  0.93720448     0.08900
H3776       H  0.77131918  0.81051043  0.91643393     0.05600
C3777       C  0.81881404  0.87442162  0.58398500    -0.20200
C3778       C  0.84302127  0.87968521  0.60503404    -0.06700
C3779       C  0.87823797  0.91011426  0.60459095     0.14100
C3780       C  0.88931075  0.93323002  0.58205680    -0.20200
C3781       C  0.86560062  0.92741400  0.56051509    -0.06700
C3782       C  0.82973852  0.89791818  0.56155656     0.14100
C3783       C  0.80367524  0.88989758  0.53846766    -0.23600
H3784       H  0.79189173  0.85082257  0.58451909     0.15400
H3785       H  0.91659536  0.95620548  0.58144975     0.15400
C3786       C  0.90464594  0.91897163  0.62753393    -0.23500
H3787       H  0.77758411  0.86452915  0.54205417     0.05700
H3788       H  0.81572181  0.88682719  0.51934141     0.08900
H3789       H  0.79756698  0.91211014  0.53610096     0.10300
H3790       H  0.92887542  0.91817010  0.62013400     0.08900
H3791       H  0.89276228  0.90015162  0.64501249     0.08900
H3792       H  0.91330919  0.94654261  0.63504862     0.05600
C3793       C  0.58518964  0.65574478  0.58382041    -0.20200
C3794       C  0.57649705  0.65824709  0.55675143    -0.06700
C3795       C  0.55445876  0.67327412  0.55078482     0.14100
C3796       C  0.54005123  0.68391306  0.57191697    -0.20200
C3797       C  0.54611820  0.67862458  0.59897772    -0.06700
C3798       C  0.57001085  0.66565111  0.60517258     0.14100
C3799       C  0.07788783  0.66044669  0.63414206    -0.23600
H3800       H  0.60222029  0.64421190  0.58827708     0.15400
H3801       H  0.52210275  0.69433134  0.56737790     0.15400
C3802       C  0.54557900  0.67749294  0.52210688    -0.23500
H3803       H  0.09628390  0.64909126  0.63526230     0.05700
H3804       H  0.05227617  0.64159910  0.64488287     0.08900
H3805       H  0.09117199  0.68678618  0.64475535     0.08900
H3806       H  0.53092099  0.65055973  0.51239313     0.08900
H3807       H  0.57130387  0.69531761  0.51111215     0.08900
H3808       H  0.52811359  0.68990504  0.52089504     0.05600
C3809       C  0.55569069  0.67379462  0.94831534    -0.20200
C3810       C  0.57658927  0.65831876  0.94080647    -0.06700
C3811       C  0.58418459  0.65683506  0.91312880     0.14100
C3812       C  0.56835694  0.66852765  0.89352349    -0.20200
C3813       C  0.54506788  0.68142329  0.90119290    -0.06700
C3814       C  0.54064985  0.68634242  0.92888433     0.14100
C3815       C  0.52036797  0.70496784  0.93791057    -0.23600
H3816       H  0.55027949  0.67529095  0.96937342     0.15400
H3817       H  0.57199086  0.66511595  0.87218392     0.15400
C3818       C  0.60731176  0.64121086  0.90430597    -0.23500
H3819       H  0.51994451  0.70692793  0.96038783     0.05700
H3820       H  0.99201265  0.69018267  0.93087252     0.08900
H3821       H  0.53374582  0.73274366  0.92929663     0.08900
H3822       H  0.59483513  0.61279557  0.91134601     0.08900
H3823       H  0.63478239  0.65706038  0.91320701     0.08900
H3824       H  0.61020733  0.64168600  0.88185562     0.05600
C3825       C  0.62080612  0.52548533  0.90054159    -0.20200
C3826       C  0.65589637  0.53044532  0.90146648    -0.06700
C3827       C  0.67954668  0.55166304  0.92227855     0.14100
C3828       C  0.66753055  0.56745670  0.94164336    -0.20200
C3829       C  0.63225440  0.56240921  0.94091223    -0.06700
C3830       C  0.60859292  0.54120285  0.91977842     0.14100
C3831       C  0.57093259  0.53543819  0.91574430    -0.23600
H3832       H  0.60290281  0.50976601  0.88426626     0.15400
H3833       H  0.68572434  0.58351140  0.95772992     0.15400
C3834       C  0.71723872  0.55711977  0.92433047    -0.23500
H3835       H  0.56870939  0.54406418  0.89486027     0.05700
H3836       H  0.56366848  0.55092948  0.92972002     0.08900
H3837       H  0.55071291  0.50629542  0.91818325     0.08900
H3838       H  0.73310717  0.57105367  0.90581344     0.08900
H3839       H  0.71575155  0.53055560  0.92644730     0.08900
H3840       H  0.73194759  0.57379513  0.94216295     0.05600
C3841       C  0.61781827  0.52735814  0.60012568    -0.20200
C3842       C  0.65337642  0.53359802  0.60044366    -0.06700
C3843       C  0.67827926  0.55585500  0.58013851     0.14100
C3844       C  0.66694592  0.57123031  0.56008421    -0.20200
C3845       C  0.63110885  0.56423556  0.55911181    -0.06700
C3846       C  0.60623312  0.54228284  0.57965286     0.14100
C3847       C  0.56780175  0.53510011  0.58062473    -0.23600
H3848       H  0.59892949  0.51018117  0.61570732     0.15400
H3849       H  0.68609566  0.58781428  0.54440751     0.15400
C3850       C  0.71629649  0.56204318  0.57780349    -0.23500
H3851       H  0.55306616  0.51924275  0.59896187     0.05700
H3852       H  0.55264672  0.51930819  0.56262070     0.08900
H3853       H  0.56782500  0.56107367  0.58112932     0.08900
H3854       H  0.72218352  0.54641780  0.59289064     0.08900
H3855       H  0.73613293  0.59121160  0.58030306     0.08900
H3856       H  0.72022936  0.55354172  0.55739149     0.05600
C3857       C  0.78577845  0.71804235  0.71493547    -0.20200
C3858       C  0.82011041  0.72584715  0.72407611    -0.06700
C3859       C  0.85104067  0.75812411  0.71541912     0.14100
C3860       C  0.84662215  0.78303362  0.69981835    -0.20200
C3861       C  0.81279414  0.77439819  0.68899121    -0.06700
C3862       C  0.78199420  0.74092142  0.69617408     0.14100
C3863       C  0.74579038  0.72693791  0.68274144    -0.23600
H3864       H  0.76225036  0.69248961  0.72061286     0.15400
H3865       H  0.87045497  0.80794290  0.69342694     0.15400
C3866       C  0.88894650  0.76500579  0.72000849    -0.23500
H3867       H  0.73673504  0.69968153  0.67435220     0.05700
H3868       H  0.74695974  0.74411857  0.66550754     0.08900
H3869       H  0.72549109  0.72499569  0.69786146     0.08900
H3870       H  0.89262835  0.74478679  0.70863478     0.08900
H3871       H  0.89406608  0.76314691  0.74174064     0.08900
H3872       H  0.90984180  0.79213494  0.71255664     0.05600
C3873       C  0.83658584  0.75631271  0.78481492    -0.20200
C3874       C  0.81375455  0.71876211  0.78565101    -0.06700
C3875       C  0.78284247  0.70409492  0.80290176     0.14100
C3876       C  0.77695543  0.72714116  0.81985395    -0.20200
C3877       C  0.80070446  0.76454443  0.81945013    -0.06700
C3878       C  0.83026833  0.77934798  0.80103991     0.14100
C3879       C  0.85668977  0.81935843  0.79875489    -0.23600
H3880       H  0.86023215  0.76807115  0.77198072     0.15400
H3881       H  0.75465331  0.71585746  0.83429438     0.15400
C3882       C  0.75601359  0.66430327  0.80367452    -0.23500
H3883       H  0.88422008  0.82494806  0.80446083     0.05700
H3884       H  0.84946295  0.83581935  0.81185182     0.08900
H3885       H  0.85741074  0.82832508  0.77743500     0.08900
H3886       H  0.76903808  0.64962299  0.81217677     0.08900
H3887       H  0.74598100  0.65469010  0.78286133     0.08900
H3888       H  0.73223163  0.65793144  0.81675376     0.05600
C3889       C  0.90957282  0.70134834  0.80401788    -0.20200
C3890       C  0.89714660  0.67662550  0.78253760    -0.06700
C3891       C  0.91395770  0.65560177  0.77774837     0.14100
C3892       C  0.94351166  0.66110081  0.79381047    -0.20200
C3893       C  0.95587765  0.68597172  0.81509480    -0.06700
C3894       C  0.93855575  0.70616362  0.82037252     0.14100
C3895       C  0.95020572  0.73229151  0.84369995    -0.23600
H3896       H  0.89670131  0.71729292  0.80782579     0.15400
H3897       H  0.95574511  0.64444212  0.79067690     0.15400
C3898       C  0.90052919  0.62580972  0.75708224    -0.23500
H3899       H  0.93402189  0.74608811  0.84482746     0.05700
H3900       H  0.97916287  0.75326261  0.84125012     0.08900
H3901       H  0.94664137  0.71768570  0.86318102     0.08900
H3902       H  0.92176051  0.63258701  0.74136048     0.08900
H3903       H  0.87525319  0.62076072  0.74702098     0.08900
H3904       H  0.89462111  0.60019466  0.76726615     0.05600
C3905       C  0.88892863  0.66757281  0.69298038    -0.20200
C3906       C  0.89833135  0.68409226  0.71851179    -0.06700
C3907       C  0.93581868  0.70763006  0.72344221     0.14100
C3908       C  0.96179063  0.70702871  0.70588678    -0.20200
C3909       C  0.95209222  0.69070399  0.68002603    -0.06700
C3910       C  0.91503975  0.67577684  0.67283464     0.14100
C3911       C  0.90238805  0.67306767  0.64399084    -0.23600
H3912       H  0.86084333  0.65031862  0.68746979     0.15400
H3913       H  0.98937556  0.72098273  0.71261183     0.15400
C3914       C  0.94973200  0.73618742  0.74496529    -0.23500
H3915       H  0.88550632  0.68607499  0.64214894     0.05700
H3916       H  0.88562079  0.64431998  0.63807275     0.08900
H3917       H  0.92554926  0.68816640  0.62990222     0.08900
H3918       H  0.96683874  0.76298629  0.73522429     0.08900
H3919       H  0.92785965  0.73793788  0.75560829     0.08900
H3920       H  0.96617818  0.73109038  0.75984443     0.05600
C3921       C  0.73854102  0.58287919  0.77732056    -0.20200
C3922       C  0.77595999  0.59947372  0.78264026    -0.06700
C3923       C  0.78754004  0.58636205  0.80479705     0.14100
C3924       C  0.76163089  0.55936538  0.82178710    -0.20200
C3925       C  0.72451538  0.54292172  0.81648717    -0.06700
C3926       C  0.71276251  0.55452283  0.79373800     0.14100
C3927       C  0.67329251  0.53827375  0.78668526    -0.23600
H3928       H  0.72922597  0.59256966  0.76054419     0.15400
H3929       H  0.77051896  0.55160712  0.83990194     0.15400
C3930       C  0.82688322  0.59886532  0.81032605    -0.23500
H3931       H  0.66554968  0.55948526  0.78740819     0.05700
H3932       H  0.65520959  0.51610257  0.80071365     0.08900
H3933       H  0.66873721  0.02709697  0.76582633     0.08900
H3934       H  0.84107794  0.62638009  0.81879614     0.08900
H3935       H  0.84039100  0.59769700  0.79149054     0.08900
H3936       H  0.82989130  0.58122423  0.82548084     0.05600
C3937       C  0.74214839  0.54036106  0.70374072    -0.20200
C3938       C  0.73119877  0.55029449  0.67963980    -0.06700
C3939       C  0.74908007  0.58819968  0.67390231     0.14100
C3940       C  0.76725581  0.61309412  0.69453831    -0.20200
C3941       C  0.77819200  0.60319911  0.71829282    -0.06700
C3942       C  0.76820038  0.56630499  0.72128165     0.14100
C3943       C  0.78656304  0.55331148  0.74067834    -0.23600
H3944       H  0.73275502  0.51271203  0.70885552     0.15400
H3945       H  0.77561605  0.64112715  0.69063792     0.15400
C3946       C  0.75496877  0.60414940  0.64566222    -0.23500
H3947       H  0.79660427  0.53763011  0.72934503     0.05700
H3948       H  0.76703315  0.53545537  0.75644896     0.08900
H3949       H  0.81059659  0.57582915  0.75024055     0.08900
H3950       H  0.73922123  0.61818864  0.64282015     0.08900
H3951       H  0.74839104  0.58364368  0.62983550     0.08900
H3952       H  0.78417990  0.62418269  0.64260448     0.05600
loop_ 
_geom_bond_atom_site_label_1 
_geom_bond_atom_site_label_2 
_geom_bond_distance 
_geom_bond_site_symmetry_2 
_ccdc_geom_bond_type 
C1            H2   1.106       .  S
C1            C7   1.555       .  S
C1            C6   1.544       .  S
C1            C5   1.543       .  S
C3            H4   1.105       .  S
C3            C9   1.527       .  S
C3            C8   1.555       .  S
C3           C10   1.539       .  S
C5            C8   1.386       .  D
C5          C464   1.502       .  S
C6            C9   1.365       .  D
C6          C416   1.498       .  S
C7           C10   1.382       .  D
C7          C432   1.494       .  S
C8          C483   1.508       .  S
C9          C400   1.487       .  S
C10         C448   1.512       .  S
O11          C21   1.266       .  A
O11         V513   1.899   1_554  S
O12          C22   1.264       .  A
O12          V19   1.906       .  S
O13          C23   1.264       .  A
O13         V513   1.905   1_554  S
O14          C24   1.266       .  A
O14          V19   1.904       .  S
O15          C24   1.265       .  A
O15          V20   1.903       .  S
O16          C23   1.263       .  A
O16         V514   1.896   1_554  S
O17          C22   1.263       .  A
O17          V20   1.897       .  S
O18          C21   1.263       .  A
O18         V514   1.897   1_554  S
V19         O505   1.899       .  S
V19         O507   1.905       .  S
V19          V20   2.087       .  T
V20         O510   1.896       .  S
V20         O512   1.897       .  S
C21         C387   1.483       .  S
C22         C352   1.472       .  S
C23         C336   1.470       .  S
C24         C371   1.487       .  S
O25          C35   1.264       .  A
O25          V33   1.896   1_554  S
O26          C36   1.264       .  A
O26        V1515   1.898   1_545  S
O27          C37   1.263       .  A
O27        V1021   1.898   1_544  S
O28          C38   1.263       .  A
O28         V527   1.897       .  S
O29          C38   1.264       .  A
O29          V34   1.902       .  S
O30          C37   1.266       .  A
O30        V1516   1.903   1_554  S
O31          C36   1.264       .  A
O31        V1022   1.894       .  S
O32          C35   1.261       .  A
O32         V528   1.891   1_554  S
V33        O1508   1.898       .  S
V33        O1015   1.898   1_556  S
V33         O522   1.897       .  S
V33         V528   2.087       .  T
V34        O1512   1.903       .  S
V34        O1019   1.894       .  S
V34         O526   1.891       .  S
V34         V527   2.087       .  T
C35         C323   1.468       .  S
C36         C288   1.484       .  S
C37         C272   1.485       .  S
C38         C307   1.473       .  S
O39          C49   1.262       .  A
O39          V47   1.892       .  S
O40          C50   1.262       .  A
O40        V2517   1.894   1_454  S
O41          C51   1.265       .  A
O41        V2023   1.902   1_455  S
O42          C52   1.264       .  A
O42         V541   1.903   1_554  S
O43          C52   1.263       .  A
O43          V48   1.899       .  S
O44          C51   1.264       .  A
O44        V2518   1.908   1_455  S
O45          C50   1.267       .  A
O45        V2024   1.913   1_455  S
O46          C49   1.268       .  A
O46         V542   1.917       .  S
V47        O2510   1.894       .  S
V47        O2017   1.902       .  S
V47         O536   1.903       .  S
V47         V542   2.088       .  T
V48        O2514   1.908   1_554  S
V48        O2021   1.913       .  S
V48         O540   1.917   1_554  S
V48         V541   2.088   1_554  T
C49         C208   1.482       .  S
C50         C243   1.479       .  S
C51         C227   1.476       .  S
C52         C259   1.471       .  S
C53         C451   1.527       .  S
C53          C58   1.422       .  A
C53        C2030   1.432       .  A
C54         C192   1.474       .  S
C54          C55   1.405       .  A
C54        C2029   1.432   1_455  A
C55          C56   1.389       .  A
C55          H60   1.086       .  S
C56         C339   1.478       .  S
C56        C2033   1.406   1_455  A
C57         C275   1.493       .  S
C57          C58   1.402       .  A
C57        C2032   1.406       .  A
C58          H59   1.081       .  S
C61         C176   1.480       .  S
C61          C62   1.419       .  A
C61          C66   1.402       .  A
C62         C403   1.487       .  S
C62          C63   1.409       .  A
C63          C64   1.398       .  A
C63          H68   1.084       .  S
C64         C256   1.492       .  S
C64          C65   1.412       .  A
C65         C320   1.473       .  S
C65          C66   1.396       .  A
C66          H67   1.085       .  S
C69         C160   1.495       .  S
C69          C74   1.408       .  A
C69        C2046   1.420   1_455  A
C70         C435   1.480       .  S
C70          C71   1.404       .  A
C70        C2045   1.420       .  A
C71          C72   1.399       .  A
C71          H76   1.085       .  S
C72         C291   1.485       .  S
C72        C2049   1.414       .  A
C73         C355   1.482       .  S
C73          C74   1.392       .  A
C73        C2048   1.414   1_455  A
C74          H75   1.085       .  S
C77         C144   1.531       .  S
C77          C78   1.435       .  A
C77          C82   1.416       .  A
C78         C419   1.477       .  S
C78          C79   1.412       .  A
C79          C80   1.393       .  A
C79          H84   1.086       .  S
C80         C211   1.490       .  S
C80          C81   1.405       .  A
C81         C304   1.479       .  S
C81          C82   1.398       .  A
C82          H83   1.081       .  S
C85         C467   1.484       .  S
C85          C90   1.409       .  A
C85        C1074   1.419   1_545  A
C86         C131   1.489       .  S
C86          C87   1.406       .  A
C86        C1073   1.419       .  A
C87          C88   1.395       .  A
C87          H92   1.085       .  S
C88         C224   1.479       .  S
C88        C1077   1.410       .  A
C89         C368   1.489       .  S
C89          C90   1.405       .  A
C89        C1076   1.410   1_545  A
C90          H91   1.085       .  S
C93         C480   1.534       .  S
C93          C98   1.413       .  A
C93        C1082   1.435   1_545  A
C94         C115   1.482       .  S
C94          C95   1.413       .  A
C94        C1081   1.435       .  A
C95          C96   1.400       .  A
C95         H100   1.083       .  S
C96         C240   1.501       .  S
C96        C1085   1.411       .  A
C97         C384   1.483       .  S
C97          C98   1.399       .  A
C97        C1084   1.411   1_545  A
C98          H99   1.080       .  S
C101        H102   1.109       .  S
C101        C107   1.542       .  S
C101        C106   1.554       .  S
C101        C105   1.549       .  S
C103        H104   1.106       .  S
C103        C109   1.559       .  S
C103        C108   1.529       .  S
C103        C110   1.542       .  S
C105        C108   1.367       .  D
C105        C195   1.492       .  S
C106        C109   1.392       .  D
C106        C179   1.504       .  S
C107        C110   1.374       .  D
C107        C112   1.503       .  S
C108        C163   1.487       .  S
C109        C147   1.526       .  S
C110        C128   1.491       .  S
C111        C112   1.403       .  A
C111        C116   1.399       .  A
C111        H118   1.071       .  S
C112        C113   1.420       .  A
C113        C114   1.411       .  A
C113        C120   1.504       .  S
C114        C115   1.402       .  A
C114        H119   1.084       .  S
C115        C116   1.411       .  A
C116        C117   1.509       .  S
C117        H121   1.111       .  S
C117        H122   1.109       .  S
C117        H123   1.110       .  S
C120        H124   1.106       .  S
C120        H125   1.110       .  S
C120        H126   1.111       .  S
C127        C128   1.404       .  A
C127        C132   1.411       .  A
C127        H134   1.084       .  S
C128        C129   1.413       .  A
C129        C130   1.397       .  A
C129        C136   1.501       .  S
C130        C131   1.402       .  A
C130        H135   1.085       .  S
C131        C132   1.418       .  A
C132        C133   1.502       .  S
C133        H137   1.111       .  S
C133        H138   1.104       .  S
C133       H1127   1.110       .  S
C136        H140   1.108       .  S
C136        H141   1.101       .  S
C136        H142   1.111       .  S
H139       C1121   1.110       .  S
C143        C144   1.414       .  A
C143        C148   1.415       .  A
C143        H150   1.073       .  S
C144        C145   1.425       .  A
C145        C146   1.402       .  A
C145        C152   1.512       .  S
C146        C147   1.407       .  A
C146        H151   1.079       .  S
C147        C148   1.426       .  A
C148        C149   1.506       .  S
C149        H153   1.111       .  S
C149        H154   1.110       .  S
C149        H155   1.105       .  S
C152        H156   1.110       .  S
C152        H157   1.108       .  S
C152        H158   1.111       .  S
C159        C160   1.405       .  A
C159        C164   1.409       .  A
C159        H166   1.079       .  S
C160        C161   1.420       .  A
C161        C162   1.391       .  A
C161        C168   1.510       .  S
C162        C163   1.396       .  A
C162        H167   1.085       .  S
C163        C164   1.418       .  A
C164        C165   1.501       .  S
C165        H169   1.110       .  S
C165        H170   1.105       .  S
C165        H171   1.101       .  S
C168        H172   1.109       .  S
C168        H173   1.110       .  S
C168        H174   1.111       .  S
C175        C176   1.394       .  A
C175        C180   1.394       .  A
C175        H182   1.085       .  S
C176        C177   1.410       .  A
C177        C178   1.411       .  A
C177        C184   1.504       .  S
C178        C179   1.411       .  A
C178        H183   1.083       .  S
C179        C180   1.423       .  A
C180        C181   1.500       .  S
C181        H185   1.111       .  S
C181        H186   1.110       .  S
C181        H187   1.088       .  S
C184        H188   1.110       .  S
C184        H189   1.110       .  S
C184        H190   1.111       .  S
C191        C192   1.399       .  A
C191        C196   1.396       .  A
C191        H198   1.086       .  S
C192        C193   1.410       .  A
C193        C194   1.407       .  A
C193        C200   1.504       .  S
C194        C195   1.406       .  A
C194        H199   1.084       .  S
C195        C196   1.420       .  A
C196        C197   1.506       .  S
C197        H201   1.111       .  S
C197        H202   1.110       .  S
C197        H203   1.104       .  S
C200        H204   1.111       .  S
C200        H205   1.110       .  S
C200        H206   1.111       .  S
C207        C208   1.406       .  A
C207        C212   1.411       .  A
C207        H214   1.084       .  S
C208        C209   1.418       .  A
C209        C210   1.399       .  A
C209        C216   1.508       .  S
C210        C211   1.400       .  A
C210        H215   1.084       .  S
C211        C212   1.412       .  A
C212        C213   1.504       .  S
C213        H217   1.111       .  S
C213        H218   1.110       .  S
C213        H219   1.108       .  S
C216        H220   1.104       .  S
C216        H221   1.110       .  S
C216        H222   1.111       .  S
C223        C224   1.400       .  A
C223        C228   1.404       .  A
C223        H230   1.084       .  S
C224        C225   1.411       .  A
C225        C226   1.401       .  A
C225        C232   1.508       .  S
C226        C227   1.401       .  A
C226        H231   1.080       .  S
C227        C228   1.416       .  A
C228        C229   1.504       .  S
C229        H233   1.110       .  S
C229        H234   1.108       .  S
C229        H235   1.110       .  S
C232        H236   1.110       .  S
C232        H237   1.108       .  S
C232        H238   1.111       .  S
C239        C240   1.404       .  A
C239        C244   1.400       .  A
C239       H1234   1.080       .  S
C240        C241   1.422       .  A
C241        C242   1.411       .  A
C241        C248   1.508       .  S
C242        C243   1.403       .  A
C242        H247   1.084       .  S
C243        C244   1.411       .  A
C244        C245   1.508       .  S
C245        H250   1.110       .  S
C245       H1237   1.111       .  S
C245       H1239   1.102       .  S
H246       C1227   1.080       .  S
C248        H252   1.110       .  S
C248        H253   1.108       .  S
C248        H254   1.111       .  S
H249       C1233   1.111       .  S
H251       C1233   1.102       .  S
C255        C256   1.406       .  A
C255        C260   1.404       .  A
C255        H262   1.083       .  S
C256        C257   1.417       .  A
C257        C258   1.405       .  A
C257        C264   1.509       .  S
C258        C259   1.400       .  A
C258        H263   1.084       .  S
C259        C260   1.409       .  A
C260        C261   1.507       .  S
C261        H265   1.111       .  S
C261        H266   1.110       .  S
C261        H267   1.110       .  S
C264        H268   1.108       .  S
C264        H269   1.108       .  S
C264        H270   1.111       .  S
C271        C272   1.402       .  A
C271        C276   1.403       .  A
C271        H278   1.084       .  S
C272        C273   1.419       .  A
C273        C274   1.406       .  A
C273        C280   1.507       .  S
C274        C275   1.403       .  A
C274       H2255   1.084       .  S
C275        C276   1.415       .  A
C276        C277   1.502       .  S
C277        H281   1.111       .  S
C277        H282   1.110       .  S
C277        H283   1.102       .  S
H279       C2250   1.084       .  S
C280        H284   1.110       .  S
C280        H285   1.109       .  S
C280       H2262   1.111       .  S
H286       C2256   1.111       .  S
C287        C288   1.407       .  A
C287        C292   1.401       .  A
C287        H294   1.084       .  S
C288        C289   1.418       .  A
C289        C290   1.399       .  A
C289        C296   1.508       .  S
C290        C291   1.402       .  A
C290        H295   1.083       .  S
C291        C292   1.414       .  A
C292       C2269   1.509       .  S
C293        H297   1.111       .  S
C293        H298   1.110       .  S
C293        H299   1.106       .  S
C293       C2268   1.509       .  S
C296        H300   1.103       .  S
C296        H301   1.108       .  S
C296        H302   1.111       .  S
C303        C304   1.398       .  A
C303        C308   1.399       .  A
C303        H310   1.084       .  S
C304        C305   1.414       .  A
C305        C306   1.404       .  A
C305        C312   1.506       .  S
C306        C307   1.402       .  A
C306        H311   1.084       .  S
C307        C308   1.412       .  A
C308        C309   1.502       .  S
C309        H313   1.111       .  S
C309        H314   1.109       .  S
C309        H315   1.110       .  S
C312        H316   1.110       .  S
C312        H317   1.110       .  S
C312        H318   1.108       .  S
C319        C320   1.401       .  A
C319        C324   1.401       .  A
C319        H326   1.084       .  S
C320        C321   1.411       .  A
C321        C322   1.397       .  A
C321        C328   1.506       .  S
C322        C323   1.401       .  A
C322        H327   1.083       .  S
C323        C324   1.413       .  A
C324        C325   1.507       .  S
C325        H329   1.111       .  S
C325        H330   1.111       .  S
C325        H331   1.109       .  S
C328        H332   1.110       .  S
C328        H333   1.108       .  S
C328        H334   1.110       .  S
C335        C336   1.402       .  A
C335        C340   1.406       .  A
C335        H342   1.084       .  S
C336        C337   1.409       .  A
C337        C338   1.395       .  A
C337        C344   1.496       .  S
C338        C339   1.396       .  A
C338        H343   1.083       .  S
C339        C340   1.415       .  A
C340       C2317   1.507       .  S
C341        H345   1.111       .  S
C341        H346   1.110       .  S
C341        H347   1.110       .  S
C341       C2316   1.507       .  S
C344        H348   1.110       .  S
C344        H349   1.110       .  S
C344        H350   1.111       .  S
C351        C352   1.399       .  A
C351        C356   1.399       .  A
C351        H358   1.071       .  S
C352        C353   1.409       .  A
C353        C354   1.404       .  A
C353        C360   1.505       .  S
C354        C355   1.407       .  A
C354        H359   1.083       .  S
C355        C356   1.407       .  A
C356        C357   1.506       .  S
C357        H361   1.111       .  S
C357        H363   1.110       .  S
C357       H2338   1.104   1_455  S
C360        H364   1.108       .  S
C360        H365   1.110       .  S
C360        H366   1.111       .  S
H362       C2333   1.104       .  S
C367        C368   1.402       .  A
C367        C372   1.405       .  A
C367        H374   1.082       .  S
C368        C369   1.410       .  A
C369        C370   1.406       .  A
C369        C376   1.506       .  S
C370        C371   1.408       .  A
C370        H375   1.084       .  S
C371        C372   1.421       .  A
C372        C373   1.510       .  S
C373        H377   1.111       .  S
C373        H378   1.103       .  S
C373        H379   1.111       .  S
C376        H380   1.110       .  S
C376        H381   1.110       .  S
C376        H382   1.111       .  S
C383        C384   1.400       .  A
C383        C388   1.407       .  A
C383        H390   1.084       .  S
C384        C385   1.416       .  A
C385        C386   1.398       .  A
C385        C392   1.508       .  S
C386        C387   1.402       .  A
C386        H391   1.085       .  S
C387        C388   1.420       .  A
C388        C389   1.508       .  S
C389        H393   1.111       .  S
C389        H394   1.109       .  S
C389        H395   1.111       .  S
C392        H396   1.107       .  S
C392        H397   1.110       .  S
C392        H398   1.111       .  S
C399        C400   1.403       .  A
C399        C404   1.409       .  A
C399        H406   1.085       .  S
C400        C401   1.412       .  A
C401        C402   1.398       .  A
C401        C408   1.507       .  S
C402        C403   1.404       .  A
C402        H407   1.085       .  S
C403        C404   1.417       .  A
C404        C405   1.503       .  S
C405        H409   1.111       .  S
C405        H410   1.104       .  S
C405        H411   1.110       .  S
C408        H412   1.107       .  S
C408        H413   1.103       .  S
C408        H414   1.111       .  S
C415        C416   1.401       .  A
C415        C420   1.398       .  A
C415        H422   1.074       .  S
C416        C417   1.418       .  A
C417        C418   1.409       .  A
C417        C424   1.502       .  S
C418        C419   1.401       .  A
C418        H423   1.084       .  S
C419        C420   1.414       .  A
C420        C421   1.509       .  S
C421        H425   1.110       .  S
C421        H426   1.107       .  S
C421        H427   1.111       .  S
C424        H428   1.107       .  S
C424        H429   1.110       .  S
C424        H430   1.111       .  S
C431        C432   1.404       .  A
C431        C436   1.403       .  A
C431        H438   1.084       .  S
C432        C433   1.422       .  A
C433        C434   1.406       .  A
C433        C440   1.507       .  S
C434        C435   1.400       .  A
C434        H439   1.084       .  S
C435        C436   1.413       .  A
C436        C437   1.508       .  S
C437        H441   1.111       .  S
C437        H442   1.110       .  S
C437        H443   1.110       .  S
C440        H444   1.110       .  S
C440        H445   1.106       .  S
C440        H446   1.110       .  S
C447        C448   1.403       .  A
C447        C452   1.394       .  A
C447        H454   1.081       .  S
C448        C449   1.420       .  A
C449        C450   1.413       .  A
C449        C456   1.502       .  S
C450        C451   1.415       .  A
C450        H455   1.072       .  S
C451        C452   1.421       .  A
C452        C453   1.504       .  S
C453        H457   1.111       .  S
C453        H458   1.110       .  S
C453        H459   1.107       .  S
C456        H460   1.110       .  S
C456        H461   1.103       .  S
C456        H462   1.109       .  S
C463        C464   1.409       .  A
C463        C468   1.408       .  A
C463        H470   1.084       .  S
C464        C465   1.422       .  A
C465        C466   1.400       .  A
C465        C472   1.508       .  S
C466        C467   1.398       .  A
C466        H471   1.083       .  S
C467        C468   1.413       .  A
C468        C469   1.505       .  S
C469        H473   1.110       .  S
C469        H474   1.109       .  S
C469       H1463   1.111       .  S
C472        H476   1.104       .  S
C472        H477   1.104       .  S
C472        H478   1.111       .  S
H475       C1457   1.111       .  S
C479        C480   1.415       .  A
C479        C484   1.411       .  A
C479        H486   1.070       .  S
C480        C481   1.431       .  A
C481        C482   1.398       .  A
C481        C488   1.510       .  S
C482        C483   1.400       .  A
C482        H487   1.082       .  S
C483        C484   1.421       .  A
C484        C485   1.505       .  S
C485        H489   1.111       .  S
C485        H490   1.110       .  S
C485        H491   1.103       .  S
C488        H492   1.110       .  S
C488        H493   1.103       .  S
C488        H494   1.112       .  S
C495        H496   1.106       .  S
C495        C501   1.555       .  S
C495        C500   1.544       .  S
C495        C499   1.543       .  S
C497        H498   1.105       .  S
C497        C503   1.527       .  S
C497        C502   1.555       .  S
C497        C504   1.539       .  S
C499        C502   1.386       .  D
C499        C958   1.502       .  S
C500        C503   1.365       .  D
C500        C910   1.498       .  S
C501        C504   1.382       .  D
C501        C926   1.494       .  S
C502        C977   1.508       .  S
C503        C894   1.487       .  S
C504        C942   1.512       .  S
O505        C515   1.266       .  A
O506        C516   1.264       .  A
O506        V513   1.906       .  S
O507        C517   1.264       .  A
O508        C518   1.266       .  A
O508        V513   1.904       .  S
O509        C518   1.265       .  A
O509        V514   1.903       .  S
O510        C517   1.263       .  A
O511        C516   1.263       .  A
O511        V514   1.897       .  S
O512        C515   1.263       .  A
V513        V514   2.087       .  T
C515        C881   1.483       .  S
C516        C846   1.472       .  S
C517        C830   1.470       .  S
C518        C865   1.487       .  S
O519        C529   1.264       .  A
O519        V527   1.896       .  S
O520        C530   1.264       .  A
O520       V1021   1.898   1_545  S
O521        C531   1.263       .  A
O521       V1515   1.898   1_545  S
O522        C532   1.263       .  A
O523        C532   1.264       .  A
O523        V528   1.902       .  S
O524        C531   1.266       .  A
O524       V1022   1.903       .  S
O525        C530   1.264       .  A
O525       V1516   1.894       .  S
O526        C529   1.261       .  A
V527       O1014   1.898       .  S
V527       O1509   1.898       .  S
V528       O1018   1.903   1_556  S
V528       O1513   1.894       .  S
C529        C817   1.468       .  S
C530        C782   1.484       .  S
C531        C766   1.485       .  S
C532        C801   1.473       .  S
O533        C543   1.262       .  A
O533        V541   1.892       .  S
O534        C544   1.262       .  A
O534       V2023   1.894   1_455  S
O535        C545   1.265       .  A
O535       V2517   1.902   1_455  S
O536        C546   1.264       .  A
O537        C546   1.263       .  A
O537        V542   1.899       .  S
O538        C545   1.264       .  A
O538       V2024   1.908   1_456  S
O539        C544   1.267       .  A
O539       V2518   1.913   1_455  S
O540        C543   1.268       .  A
V541       O2016   1.894   1_556  S
V541       O2511   1.902       .  S
V542       O2020   1.908       .  S
V542       O2515   1.913       .  S
C543        C702   1.482       .  S
C544        C737   1.479       .  S
C545        C721   1.476       .  S
C546        C753   1.471       .  S
C547        C945   1.527       .  S
C547       C2524   1.432       .  A
C547        C552   1.422       .  A
C548        C686   1.474       .  S
C548       C2523   1.432   1_455  A
C548        C549   1.405       .  A
C549        C550   1.389       .  A
C549        H554   1.086       .  S
C550        C833   1.478       .  S
C550       C2527   1.406   1_455  A
C551        C769   1.493       .  S
C551       C2526   1.406       .  A
C551        C552   1.402       .  A
C552        H553   1.081       .  S
C555        C670   1.480       .  S
C555        C556   1.419       .  A
C555        C560   1.402       .  A
C556        C897   1.487       .  S
C556        C557   1.409       .  A
C557        C558   1.398       .  A
C557        H562   1.084       .  S
C558        C750   1.492       .  S
C558        C559   1.412       .  A
C559        C814   1.473       .  S
C559        C560   1.396       .  A
C560        H561   1.085       .  S
C563        C654   1.495       .  S
C563       C2540   1.420   1_455  A
C563        C568   1.408       .  A
C564        C929   1.480       .  S
C564       C2539   1.420       .  A
C564        C565   1.404       .  A
C565        C566   1.399       .  A
C565        H570   1.085       .  S
C566        C785   1.485       .  S
C566       C2543   1.414       .  A
C567        C849   1.482       .  S
C567       C2542   1.414   1_455  A
C567        C568   1.392       .  A
C568        H569   1.085       .  S
C571        C638   1.531       .  S
C571        C572   1.435       .  A
C571        C576   1.416       .  A
C572        C913   1.477       .  S
C572        C573   1.412       .  A
C573        C574   1.393       .  A
C573        H578   1.086       .  S
C574        C705   1.490       .  S
C574        C575   1.405       .  A
C575        C798   1.479       .  S
C575        C576   1.398       .  A
C576        H577   1.081       .  S
C579        C961   1.484       .  S
C579       C1568   1.419   1_545  A
C579        C584   1.409       .  A
C580        C625   1.489       .  S
C580       C1567   1.419       .  A
C580        C581   1.406       .  A
C581        C582   1.395       .  A
C581        H586   1.085       .  S
C582        C718   1.479       .  S
C582       C1571   1.410       .  A
C583        C862   1.489       .  S
C583       C1570   1.410   1_545  A
C583        C584   1.405       .  A
C584        H585   1.085       .  S
C587        C974   1.534       .  S
C587       C1576   1.435   1_545  A
C587        C592   1.413       .  A
C588        C609   1.482       .  S
C588       C1575   1.435       .  A
C588        C589   1.413       .  A
C589        C590   1.400       .  A
C589        H594   1.083       .  S
C590        C734   1.501       .  S
C590       C1579   1.411       .  A
C591        C878   1.483       .  S
C591       C1578   1.411   1_545  A
C591        C592   1.399       .  A
C592        H593   1.080       .  S
C595        H596   1.109       .  S
C595        C601   1.542       .  S
C595        C600   1.554       .  S
C595        C599   1.549       .  S
C597        H598   1.106       .  S
C597        C603   1.559       .  S
C597        C602   1.529       .  S
C597        C604   1.542       .  S
C599        C602   1.367       .  D
C599        C689   1.492       .  S
C600        C603   1.392       .  D
C600        C673   1.504       .  S
C601        C604   1.374       .  D
C601        C606   1.503       .  S
C602        C657   1.487       .  S
C603        C641   1.526       .  S
C604        C622   1.491       .  S
C605        C606   1.403       .  A
C605        C610   1.399       .  A
C605        H612   1.071       .  S
C606        C607   1.420       .  A
C607        C608   1.411       .  A
C607        C614   1.504       .  S
C608        C609   1.402       .  A
C608        H613   1.084       .  S
C609        C610   1.411       .  A
C610        C611   1.509       .  S
C611        H615   1.111       .  S
C611        H616   1.109       .  S
C611        H617   1.110       .  S
C614        H618   1.106       .  S
C614        H619   1.110       .  S
C614        H620   1.111       .  S
C621        C622   1.404       .  A
C621        C626   1.411       .  A
C621        H628   1.084       .  S
C622        C623   1.413       .  A
C623        C624   1.397       .  A
C623        C630   1.501       .  S
C624        C625   1.402       .  A
C624        H629   1.085       .  S
C625        C626   1.418       .  A
C626        C627   1.502       .  S
C627        H631   1.111       .  S
C627        H632   1.104       .  S
C627       H1621   1.110       .  S
C630        H634   1.108       .  S
C630        H635   1.101       .  S
C630        H636   1.111       .  S
H633       C1615   1.110       .  S
C637        C638   1.414       .  A
C637        C642   1.415       .  A
C637        H644   1.073       .  S
C638        C639   1.425       .  A
C639        C640   1.402       .  A
C639        C646   1.512       .  S
C640        C641   1.407       .  A
C640        H645   1.079       .  S
C641        C642   1.426       .  A
C642        C643   1.506       .  S
C643        H647   1.111       .  S
C643        H648   1.110       .  S
C643        H649   1.105       .  S
C646        H650   1.110       .  S
C646        H651   1.108       .  S
C646        H652   1.111       .  S
C653        C654   1.405       .  A
C653        C658   1.409       .  A
C653        H660   1.079       .  S
C654        C655   1.420       .  A
C655        C656   1.391       .  A
C655        C662   1.510       .  S
C656        C657   1.396       .  A
C656        H661   1.085       .  S
C657        C658   1.418       .  A
C658        C659   1.501       .  S
C659        H663   1.110       .  S
C659        H664   1.105       .  S
C659        H665   1.101       .  S
C662        H666   1.109       .  S
C662        H667   1.110       .  S
C662        H668   1.111       .  S
C669        C670   1.394       .  A
C669        C674   1.394       .  A
C669        H676   1.085       .  S
C670        C671   1.410       .  A
C671        C672   1.411       .  A
C671        C678   1.504       .  S
C672        C673   1.411       .  A
C672        H677   1.083       .  S
C673        C674   1.423       .  A
C674        C675   1.500       .  S
C675        H679   1.111       .  S
C675        H680   1.110       .  S
C675        H681   1.088       .  S
C678        H682   1.110       .  S
C678        H683   1.110       .  S
C678        H684   1.111       .  S
C685        C686   1.399       .  A
C685        C690   1.396       .  A
C685        H692   1.086       .  S
C686        C687   1.410       .  A
C687        C688   1.407       .  A
C687        C694   1.504       .  S
C688        C689   1.406       .  A
C688        H693   1.084       .  S
C689        C690   1.420       .  A
C690        C691   1.506       .  S
C691        H695   1.111       .  S
C691        H696   1.110       .  S
C691        H697   1.104       .  S
C694        H698   1.111       .  S
C694        H699   1.110       .  S
C694        H700   1.111       .  S
C701        C702   1.406       .  A
C701        C706   1.411       .  A
C701        H708   1.084       .  S
C702        C703   1.418       .  A
C703        C704   1.399       .  A
C703        C710   1.508       .  S
C704        C705   1.400       .  A
C704        H709   1.084       .  S
C705        C706   1.412       .  A
C706        C707   1.504       .  S
C707        H711   1.111       .  S
C707        H712   1.110       .  S
C707        H713   1.108       .  S
C710        H714   1.104       .  S
C710        H715   1.110       .  S
C710        H716   1.111       .  S
C717        C718   1.400       .  A
C717        C722   1.404       .  A
C717        H724   1.084       .  S
C718        C719   1.411       .  A
C719        C720   1.401       .  A
C719        C726   1.508       .  S
C720        C721   1.401       .  A
C720        H725   1.080       .  S
C721        C722   1.416       .  A
C722        C723   1.504       .  S
C723        H727   1.110       .  S
C723        H728   1.108       .  S
C723        H729   1.110       .  S
C726        H730   1.110       .  S
C726        H731   1.108       .  S
C726        H732   1.111       .  S
C733        C734   1.404       .  A
C733        C738   1.400       .  A
C733       H1728   1.080       .  S
C734        C735   1.422       .  A
C735        C736   1.411       .  A
C735        C742   1.508       .  S
C736        C737   1.403       .  A
C736        H741   1.084       .  S
C737        C738   1.411       .  A
C738        C739   1.508       .  S
C739       H1731   1.111       .  S
C739        H744   1.110       .  S
C739       H1733   1.102       .  S
H740       C1721   1.080       .  S
C742        H746   1.110       .  S
C742        H747   1.108       .  S
C742        H748   1.111       .  S
H743       C1727   1.111       .  S
H745       C1727   1.102       .  S
C749        C750   1.406       .  A
C749        C754   1.404       .  A
C749        H756   1.083       .  S
C750        C751   1.417       .  A
C751        C752   1.405       .  A
C751        C758   1.509       .  S
C752        C753   1.400       .  A
C752        H757   1.084       .  S
C753        C754   1.409       .  A
C754        C755   1.507       .  S
C755        H759   1.111       .  S
C755        H760   1.110       .  S
C755        H761   1.110       .  S
C758        H762   1.108       .  S
C758        H763   1.108       .  S
C758        H764   1.111       .  S
C765        C766   1.402       .  A
C765        C770   1.403       .  A
C765        H772   1.084       .  S
C766        C767   1.419       .  A
C767        C768   1.406       .  A
C767        C774   1.507       .  S
C768        C769   1.403       .  A
C768       H2749   1.084       .  S
C769        C770   1.415       .  A
C770        C771   1.502       .  S
C771        H775   1.111       .  S
C771        H776   1.110       .  S
C771        H777   1.102       .  S
H773       C2744   1.084       .  S
C774        H778   1.110       .  S
C774        H779   1.109       .  S
C774       H2756   1.111       .  S
H780       C2750   1.111       .  S
C781        C782   1.407       .  A
C781        C786   1.401       .  A
C781        H788   1.084       .  S
C782        C783   1.418       .  A
C783        C784   1.399       .  A
C783        C790   1.508       .  S
C784        C785   1.402       .  A
C784        H789   1.083       .  S
C785        C786   1.414       .  A
C786       C2763   1.509       .  S
C787        H791   1.111       .  S
C787        H792   1.110       .  S
C787        H793   1.106       .  S
C787       C2762   1.509       .  S
C790        H794   1.103       .  S
C790        H795   1.108       .  S
C790        H796   1.111       .  S
C797        C798   1.398       .  A
C797        C802   1.399       .  A
C797        H804   1.084       .  S
C798        C799   1.414       .  A
C799        C800   1.404       .  A
C799        C806   1.506       .  S
C800        C801   1.402       .  A
C800        H805   1.084       .  S
C801        C802   1.412       .  A
C802        C803   1.502       .  S
C803        H807   1.111       .  S
C803        H808   1.109       .  S
C803        H809   1.110       .  S
C806        H810   1.110       .  S
C806        H811   1.110       .  S
C806        H812   1.108       .  S
C813        C814   1.401       .  A
C813        C818   1.401       .  A
C813        H820   1.084       .  S
C814        C815   1.411       .  A
C815        C816   1.397       .  A
C815        C822   1.506       .  S
C816        C817   1.401       .  A
C816        H821   1.083       .  S
C817        C818   1.413       .  A
C818        C819   1.507       .  S
C819        H823   1.111       .  S
C819        H824   1.111       .  S
C819        H825   1.109       .  S
C822        H826   1.110       .  S
C822        H827   1.108       .  S
C822        H828   1.110       .  S
C829        C830   1.402       .  A
C829        C834   1.406       .  A
C829        H836   1.084       .  S
C830        C831   1.409       .  A
C831        C832   1.395       .  A
C831        C838   1.496       .  S
C832        C833   1.396       .  A
C832        H837   1.083       .  S
C833        C834   1.415       .  A
C834       C2811   1.507       .  S
C835        H839   1.111       .  S
C835        H840   1.110       .  S
C835        H841   1.110       .  S
C835       C2810   1.507       .  S
C838        H842   1.110       .  S
C838        H843   1.110       .  S
C838        H844   1.111       .  S
C845        C846   1.399       .  A
C845        C850   1.399       .  A
C845        H852   1.071       .  S
C846        C847   1.409       .  A
C847        C848   1.404       .  A
C847        C854   1.505       .  S
C848        C849   1.407       .  A
C848        H853   1.083       .  S
C849        C850   1.407       .  A
C850        C851   1.506       .  S
C851        H855   1.111       .  S
C851       H2832   1.104   1_455  S
C851        H857   1.110       .  S
C854        H858   1.108       .  S
C854        H859   1.110       .  S
C854        H860   1.111       .  S
H856       C2827   1.104       .  S
C861        C862   1.402       .  A
C861        C866   1.405       .  A
C861        H868   1.082       .  S
C862        C863   1.410       .  A
C863        C864   1.406       .  A
C863        C870   1.506       .  S
C864        C865   1.408       .  A
C864        H869   1.084       .  S
C865        C866   1.421       .  A
C866        C867   1.510       .  S
C867        H871   1.111       .  S
C867        H872   1.103       .  S
C867        H873   1.111       .  S
C870        H874   1.110       .  S
C870        H875   1.110       .  S
C870        H876   1.111       .  S
C877        C878   1.400       .  A
C877        C882   1.407       .  A
C877        H884   1.084       .  S
C878        C879   1.416       .  A
C879        C880   1.398       .  A
C879        C886   1.508       .  S
C880        C881   1.402       .  A
C880        H885   1.085       .  S
C881        C882   1.420       .  A
C882        C883   1.508       .  S
C883        H887   1.111       .  S
C883        H888   1.109       .  S
C883        H889   1.111       .  S
C886        H890   1.107       .  S
C886        H891   1.110       .  S
C886        H892   1.111       .  S
C893        C894   1.403       .  A
C893        C898   1.409       .  A
C893        H900   1.085       .  S
C894        C895   1.412       .  A
C895        C896   1.398       .  A
C895        C902   1.507       .  S
C896        C897   1.404       .  A
C896        H901   1.085       .  S
C897        C898   1.417       .  A
C898        C899   1.503       .  S
C899        H903   1.111       .  S
C899        H904   1.104       .  S
C899        H905   1.110       .  S
C902        H906   1.107       .  S
C902        H907   1.103       .  S
C902        H908   1.111       .  S
C909        C910   1.401       .  A
C909        C914   1.398       .  A
C909        H916   1.074       .  S
C910        C911   1.418       .  A
C911        C912   1.409       .  A
C911        C918   1.502       .  S
C912        C913   1.401       .  A
C912        H917   1.084       .  S
C913        C914   1.414       .  A
C914        C915   1.509       .  S
C915        H919   1.110       .  S
C915        H920   1.107       .  S
C915        H921   1.111       .  S
C918        H922   1.107       .  S
C918        H923   1.110       .  S
C918        H924   1.111       .  S
C925        C926   1.404       .  A
C925        C930   1.403       .  A
C925        H932   1.084       .  S
C926        C927   1.422       .  A
C927        C928   1.406       .  A
C927        C934   1.507       .  S
C928        C929   1.400       .  A
C928        H933   1.084       .  S
C929        C930   1.413       .  A
C930        C931   1.508       .  S
C931        H935   1.111       .  S
C931        H936   1.110       .  S
C931        H937   1.110       .  S
C934        H938   1.110       .  S
C934        H939   1.106       .  S
C934        H940   1.110       .  S
C941        C942   1.403       .  A
C941        C946   1.394       .  A
C941        H948   1.081       .  S
C942        C943   1.420       .  A
C943        C944   1.413       .  A
C943        C950   1.502       .  S
C944        C945   1.415       .  A
C944        H949   1.072       .  S
C945        C946   1.421       .  A
C946        C947   1.504       .  S
C947        H951   1.111       .  S
C947        H952   1.110       .  S
C947        H953   1.107       .  S
C950        H954   1.110       .  S
C950        H955   1.103       .  S
C950        H956   1.109       .  S
C957        C958   1.409       .  A
C957        C962   1.408       .  A
C957        H964   1.084       .  S
C958        C959   1.422       .  A
C959        C960   1.400       .  A
C959        C966   1.508       .  S
C960        C961   1.398       .  A
C960        H965   1.083       .  S
C961        C962   1.413       .  A
C962        C963   1.505       .  S
C963        H967   1.110       .  S
C963        H968   1.109       .  S
C963       H1957   1.111       .  S
C966        H970   1.104       .  S
C966        H971   1.104       .  S
C966        H972   1.111       .  S
H969       C1951   1.111       .  S
C973        C974   1.415       .  A
C973        C978   1.411       .  A
C973        H980   1.070       .  S
C974        C975   1.431       .  A
C975        C976   1.398       .  A
C975        C982   1.510       .  S
C976        C977   1.400       .  A
C976        H981   1.082       .  S
C977        C978   1.421       .  A
C978        C979   1.505       .  S
C979        H983   1.111       .  S
C979        H984   1.110       .  S
C979        H985   1.103       .  S
C982        H986   1.110       .  S
C982        H987   1.103       .  S
C982        H988   1.112       .  S
C989        H990   1.106       .  S
C989        C995   1.555       .  S
C989        C994   1.544       .  S
C989        C993   1.543       .  S
C991        H992   1.105       .  S
C991        C997   1.527       .  S
C991        C996   1.555       .  S
C991        C998   1.539       .  S
C993        C996   1.386       .  D
C993       C1452   1.502       .  S
C994        C997   1.365       .  D
C994       C1404   1.498       .  S
C995        C998   1.382       .  D
C995       C1420   1.494       .  S
C996       C1471   1.508       .  S
C997       C1388   1.487       .  S
C998       C1436   1.512       .  S
O999       C1009   1.266       .  A
O999       V1501   1.899   1_554  S
O1000      C1010   1.264       .  A
O1000      V1007   1.906       .  S
O1001      C1011   1.264       .  A
O1001      V1501   1.905   1_554  S
O1002      C1012   1.266       .  A
O1002      V1007   1.904       .  S
O1003      C1012   1.265       .  A
O1003      V1008   1.903       .  S
O1004      C1011   1.263       .  A
O1004      V1502   1.896   1_554  S
O1005      C1010   1.263       .  A
O1005      V1008   1.897       .  S
O1006      C1009   1.263       .  A
O1006      V1502   1.897   1_554  S
V1007      O1493   1.899       .  S
V1007      O1495   1.905       .  S
V1007      V1008   2.087       .  T
V1008      O1498   1.896       .  S
V1008      O1500   1.897       .  S
C1009      C1375   1.483       .  S
C1010      C1340   1.472       .  S
C1011      C1324   1.470       .  S
C1012      C1359   1.487       .  S
O1013      C1023   1.264       .  A
O1013      V1021   1.896   1_554  S
O1014      C1024   1.264       .  A
O1015      C1025   1.263       .  A
O1016      C1026   1.263       .  A
O1016      V1515   1.897       .  S
O1017      C1026   1.264       .  A
O1017      V1022   1.902   1_565  S
O1018      C1025   1.266       .  A
O1019      C1024   1.264       .  A
O1020      C1023   1.261       .  A
O1020      V1516   1.891   1_564  S
V1021      O1510   1.897       .  S
V1021      V1516   2.087   1_565  T
V1022      O1514   1.891   1_545  S
V1022      V1515   2.087   1_545  T
C1023      C1311   1.468       .  S
C1024      C1276   1.484       .  S
C1025      C1260   1.485       .  S
C1026      C1295   1.473       .  S
O1027      C1037   1.262       .  A
O1027      V1035   1.892       .  S
O1028      C1038   1.262       .  A
O1028      V3505   1.894   1_454  S
O1029      C1039   1.265       .  A
O1029      V3011   1.902   1_455  S
O1030      C1040   1.264       .  A
O1030      V1529   1.903   1_554  S
O1031      C1040   1.263       .  A
O1031      V1036   1.899       .  S
O1032      C1039   1.264       .  A
O1032      V3506   1.908   1_455  S
O1033      C1038   1.267       .  A
O1033      V3012   1.913   1_455  S
O1034      C1037   1.268       .  A
O1034      V1530   1.917       .  S
V1035      O3498   1.894       .  S
V1035      O3005   1.902       .  S
V1035      O1524   1.903       .  S
V1035      V1530   2.088       .  T
V1036      O3502   1.908   1_554  S
V1036      O3009   1.913       .  S
V1036      O1528   1.917   1_554  S
V1036      V1529   2.088   1_554  T
C1037      C1196   1.482       .  S
C1038      C1231   1.479       .  S
C1039      C1215   1.476       .  S
C1040      C1247   1.471       .  S
C1041      C1439   1.527       .  S
C1041      C3018   1.432       .  A
C1041      C1046   1.422       .  A
C1042      C1180   1.474       .  S
C1042      C3017   1.432   1_455  A
C1042      C1043   1.405       .  A
C1043      C1044   1.389       .  A
C1043      H1048   1.086       .  S
C1044      C1327   1.478       .  S
C1044      C3021   1.406   1_455  A
C1045      C1263   1.493       .  S
C1045      C3020   1.406       .  A
C1045      C1046   1.402       .  A
C1046      H1047   1.081       .  S
C1049      C1164   1.480       .  S
C1049      C1050   1.419       .  A
C1049      C1054   1.402       .  A
C1050      C1391   1.487       .  S
C1050      C1051   1.409       .  A
C1051      C1052   1.398       .  A
C1051      H1056   1.084       .  S
C1052      C1244   1.492       .  S
C1052      C1053   1.412       .  A
C1053      C1308   1.473       .  S
C1053      C1054   1.396       .  A
C1054      H1055   1.085       .  S
C1057      C1148   1.495       .  S
C1057      C3034   1.420   1_455  A
C1057      C1062   1.408       .  A
C1058      C1423   1.480       .  S
C1058      C3033   1.420       .  A
C1058      C1059   1.404       .  A
C1059      C1060   1.399       .  A
C1059      H1064   1.085       .  S
C1060      C1279   1.485       .  S
C1060      C3037   1.414       .  A
C1061      C1343   1.482       .  S
C1061      C3036   1.414   1_455  A
C1061      C1062   1.392       .  A
C1062      H1063   1.085       .  S
C1065      C1132   1.531       .  S
C1065      C1066   1.435       .  A
C1065      C1070   1.416       .  A
C1066      C1407   1.477       .  S
C1066      C1067   1.412       .  A
C1067      C1068   1.393       .  A
C1067      H1072   1.086       .  S
C1068      C1199   1.490       .  S
C1068      C1069   1.405       .  A
C1069      C1292   1.479       .  S
C1069      C1070   1.398       .  A
C1070      H1071   1.081       .  S
C1073      C1455   1.484       .  S
C1073      C1078   1.409       .  A
C1074      C1119   1.489       .  S
C1074      C1075   1.406       .  A
C1075      C1076   1.395       .  A
C1075      H1080   1.085       .  S
C1076      C1212   1.479       .  S
C1077      C1356   1.489       .  S
C1077      C1078   1.405       .  A
C1078      H1079   1.085       .  S
C1081      C1468   1.534       .  S
C1081      C1086   1.413       .  A
C1082      C1103   1.482       .  S
C1082      C1083   1.413       .  A
C1083      C1084   1.400       .  A
C1083      H1088   1.083       .  S
C1084      C1228   1.501       .  S
C1085      C1372   1.483       .  S
C1085      C1086   1.399       .  A
C1086      H1087   1.080       .  S
C1089      H1090   1.109       .  S
C1089      C1095   1.542       .  S
C1089      C1094   1.554       .  S
C1089      C1093   1.549       .  S
C1091      H1092   1.106       .  S
C1091      C1097   1.559       .  S
C1091      C1096   1.529       .  S
C1091      C1098   1.542       .  S
C1093      C1096   1.367       .  D
C1093      C1183   1.492       .  S
C1094      C1097   1.392       .  D
C1094      C1167   1.504       .  S
C1095      C1098   1.374       .  D
C1095      C1100   1.503       .  S
C1096      C1151   1.487       .  S
C1097      C1135   1.526       .  S
C1098      C1116   1.491       .  S
C1099      C1100   1.403       .  A
C1099      C1104   1.399       .  A
C1099      H1106   1.071       .  S
C1100      C1101   1.420       .  A
C1101      C1102   1.411       .  A
C1101      C1108   1.504       .  S
C1102      C1103   1.402       .  A
C1102      H1107   1.084       .  S
C1103      C1104   1.411       .  A
C1104      C1105   1.509       .  S
C1105      H1109   1.111       .  S
C1105      H1110   1.109       .  S
C1105      H1111   1.110       .  S
C1108      H1112   1.106       .  S
C1108      H1113   1.110       .  S
C1108      H1114   1.111       .  S
C1115      C1116   1.404       .  A
C1115      C1120   1.411       .  A
C1115      H1122   1.084       .  S
C1116      C1117   1.413       .  A
C1117      C1118   1.397       .  A
C1117      C1124   1.501       .  S
C1118      C1119   1.402       .  A
C1118      H1123   1.085       .  S
C1119      C1120   1.418       .  A
C1120      C1121   1.502       .  S
C1121      H1125   1.111       .  S
C1121      H1126   1.104       .  S
C1124      H1128   1.108       .  S
C1124      H1129   1.101       .  S
C1124      H1130   1.111       .  S
C1131      C1132   1.414       .  A
C1131      C1136   1.415       .  A
C1131      H1138   1.073       .  S
C1132      C1133   1.425       .  A
C1133      C1134   1.402       .  A
C1133      C1140   1.512       .  S
C1134      C1135   1.407       .  A
C1134      H1139   1.079       .  S
C1135      C1136   1.426       .  A
C1136      C1137   1.506       .  S
C1137      H1141   1.111       .  S
C1137      H1142   1.110       .  S
C1137      H1143   1.105       .  S
C1140      H1144   1.110       .  S
C1140      H1145   1.108       .  S
C1140      H1146   1.111       .  S
C1147      C1148   1.405       .  A
C1147      C1152   1.409       .  A
C1147      H1154   1.079       .  S
C1148      C1149   1.420       .  A
C1149      C1150   1.391       .  A
C1149      C1156   1.510       .  S
C1150      C1151   1.396       .  A
C1150      H1155   1.085       .  S
C1151      C1152   1.418       .  A
C1152      C1153   1.501       .  S
C1153      H1157   1.110       .  S
C1153      H1158   1.105       .  S
C1153      H1159   1.101       .  S
C1156      H1160   1.109       .  S
C1156      H1161   1.110       .  S
C1156      H1162   1.111       .  S
C1163      C1164   1.394       .  A
C1163      C1168   1.394       .  A
C1163      H1170   1.085       .  S
C1164      C1165   1.410       .  A
C1165      C1166   1.411       .  A
C1165      C1172   1.504       .  S
C1166      C1167   1.411       .  A
C1166      H1171   1.083       .  S
C1167      C1168   1.423       .  A
C1168      C1169   1.500       .  S
C1169      H1173   1.111       .  S
C1169      H1174   1.110       .  S
C1169      H1175   1.088       .  S
C1172      H1176   1.110       .  S
C1172      H1177   1.110       .  S
C1172      H1178   1.111       .  S
C1179      C1180   1.399       .  A
C1179      C1184   1.396       .  A
C1179      H1186   1.086       .  S
C1180      C1181   1.410       .  A
C1181      C1182   1.407       .  A
C1181      C1188   1.504       .  S
C1182      C1183   1.406       .  A
C1182      H1187   1.084       .  S
C1183      C1184   1.420       .  A
C1184      C1185   1.506       .  S
C1185      H1189   1.111       .  S
C1185      H1190   1.110       .  S
C1185      H1191   1.104       .  S
C1188      H1192   1.111       .  S
C1188      H1193   1.110       .  S
C1188      H1194   1.111       .  S
C1195      C1196   1.406       .  A
C1195      C1200   1.411       .  A
C1195      H1202   1.084       .  S
C1196      C1197   1.418       .  A
C1197      C1198   1.399       .  A
C1197      C1204   1.508       .  S
C1198      C1199   1.400       .  A
C1198      H1203   1.084       .  S
C1199      C1200   1.412       .  A
C1200      C1201   1.504       .  S
C1201      H1205   1.111       .  S
C1201      H1206   1.110       .  S
C1201      H1207   1.108       .  S
C1204      H1208   1.104       .  S
C1204      H1209   1.110       .  S
C1204      H1210   1.111       .  S
C1211      C1212   1.400       .  A
C1211      C1216   1.404       .  A
C1211      H1218   1.084       .  S
C1212      C1213   1.411       .  A
C1213      C1214   1.401       .  A
C1213      C1220   1.508       .  S
C1214      C1215   1.401       .  A
C1214      H1219   1.080       .  S
C1215      C1216   1.416       .  A
C1216      C1217   1.504       .  S
C1217      H1221   1.110       .  S
C1217      H1222   1.108       .  S
C1217      H1223   1.110       .  S
C1220      H1224   1.110       .  S
C1220      H1225   1.108       .  S
C1220      H1226   1.111       .  S
C1227      C1228   1.404       .  A
C1227      C1232   1.400       .  A
C1228      C1229   1.422       .  A
C1229      C1230   1.411       .  A
C1229      C1236   1.508       .  S
C1230      C1231   1.403       .  A
C1230      H1235   1.084       .  S
C1231      C1232   1.411       .  A
C1232      C1233   1.508       .  S
C1233      H1238   1.110       .  S
C1236      H1240   1.110       .  S
C1236      H1241   1.108       .  S
C1236      H1242   1.111       .  S
C1243      C1244   1.406       .  A
C1243      C1248   1.404       .  A
C1243      H1250   1.083       .  S
C1244      C1245   1.417       .  A
C1245      C1246   1.405       .  A
C1245      C1252   1.509       .  S
C1246      C1247   1.400       .  A
C1246      H1251   1.084       .  S
C1247      C1248   1.409       .  A
C1248      C1249   1.507       .  S
C1249      H1253   1.111       .  S
C1249      H1254   1.110       .  S
C1249      H1255   1.110       .  S
C1252      H1256   1.108       .  S
C1252      H1257   1.108       .  S
C1252      H1258   1.111       .  S
C1259      C1260   1.402       .  A
C1259      C1264   1.403       .  A
C1259      H1266   1.084       .  S
C1260      C1261   1.419       .  A
C1261      C1262   1.406       .  A
C1261      C1268   1.507       .  S
C1262      C1263   1.403       .  A
C1262      H3243   1.084       .  S
C1263      C1264   1.415       .  A
C1264      C1265   1.502       .  S
C1265      H1269   1.111       .  S
C1265      H1270   1.110       .  S
C1265      H1271   1.102       .  S
H1267      C3238   1.084       .  S
C1268      H1272   1.110       .  S
C1268      H1273   1.109       .  S
C1268      H3250   1.111       .  S
H1274      C3244   1.111       .  S
C1275      C1276   1.407       .  A
C1275      C1280   1.401       .  A
C1275      H1282   1.084       .  S
C1276      C1277   1.418       .  A
C1277      C1278   1.399       .  A
C1277      C1284   1.508       .  S
C1278      C1279   1.402       .  A
C1278      H1283   1.083       .  S
C1279      C1280   1.414       .  A
C1280      C3257   1.509       .  S
C1281      H1285   1.111       .  S
C1281      H1286   1.110       .  S
C1281      H1287   1.106       .  S
C1281      C3256   1.509       .  S
C1284      H1288   1.103       .  S
C1284      H1289   1.108       .  S
C1284      H1290   1.111       .  S
C1291      C1292   1.398       .  A
C1291      C1296   1.399       .  A
C1291      H1298   1.084       .  S
C1292      C1293   1.414       .  A
C1293      C1294   1.404       .  A
C1293      C1300   1.506       .  S
C1294      C1295   1.402       .  A
C1294      H1299   1.084       .  S
C1295      C1296   1.412       .  A
C1296      C1297   1.502       .  S
C1297      H1301   1.111       .  S
C1297      H1302   1.109       .  S
C1297      H1303   1.110       .  S
C1300      H1304   1.110       .  S
C1300      H1305   1.110       .  S
C1300      H1306   1.108       .  S
C1307      C1308   1.401       .  A
C1307      C1312   1.401       .  A
C1307      H1314   1.084       .  S
C1308      C1309   1.411       .  A
C1309      C1310   1.397       .  A
C1309      C1316   1.506       .  S
C1310      C1311   1.401       .  A
C1310      H1315   1.083       .  S
C1311      C1312   1.413       .  A
C1312      C1313   1.507       .  S
C1313      H1317   1.111       .  S
C1313      H1318   1.111       .  S
C1313      H1319   1.109       .  S
C1316      H1320   1.110       .  S
C1316      H1321   1.108       .  S
C1316      H1322   1.110       .  S
C1323      C1324   1.402       .  A
C1323      C1328   1.406       .  A
C1323      H1330   1.084       .  S
C1324      C1325   1.409       .  A
C1325      C1326   1.395       .  A
C1325      C1332   1.496       .  S
C1326      C1327   1.396       .  A
C1326      H1331   1.083       .  S
C1327      C1328   1.415       .  A
C1328      C3305   1.507       .  S
C1329      H1333   1.111       .  S
C1329      H1334   1.110       .  S
C1329      H1335   1.110       .  S
C1329      C3304   1.507       .  S
C1332      H1336   1.110       .  S
C1332      H1337   1.110       .  S
C1332      H1338   1.111       .  S
C1339      C1340   1.399       .  A
C1339      C1344   1.399       .  A
C1339      H1346   1.071       .  S
C1340      C1341   1.409       .  A
C1341      C1342   1.404       .  A
C1341      C1348   1.505       .  S
C1342      C1343   1.407       .  A
C1342      H1347   1.083       .  S
C1343      C1344   1.407       .  A
C1344      C1345   1.506       .  S
C1345      H1349   1.111       .  S
C1345      H3326   1.104   1_455  S
C1345      H1351   1.110       .  S
C1348      H1352   1.108       .  S
C1348      H1353   1.110       .  S
C1348      H1354   1.111       .  S
H1350      C3321   1.104       .  S
C1355      C1356   1.402       .  A
C1355      C1360   1.405       .  A
C1355      H1362   1.082       .  S
C1356      C1357   1.410       .  A
C1357      C1358   1.406       .  A
C1357      C1364   1.506       .  S
C1358      C1359   1.408       .  A
C1358      H1363   1.084       .  S
C1359      C1360   1.421       .  A
C1360      C1361   1.510       .  S
C1361      H1365   1.111       .  S
C1361      H1366   1.103       .  S
C1361      H1367   1.111       .  S
C1364      H1368   1.110       .  S
C1364      H1369   1.110       .  S
C1364      H1370   1.111       .  S
C1371      C1372   1.400       .  A
C1371      C1376   1.407       .  A
C1371      H1378   1.084       .  S
C1372      C1373   1.416       .  A
C1373      C1374   1.398       .  A
C1373      C1380   1.508       .  S
C1374      C1375   1.402       .  A
C1374      H1379   1.085       .  S
C1375      C1376   1.420       .  A
C1376      C1377   1.508       .  S
C1377      H1381   1.111       .  S
C1377      H1382   1.109       .  S
C1377      H1383   1.111       .  S
C1380      H1384   1.107       .  S
C1380      H1385   1.110       .  S
C1380      H1386   1.111       .  S
C1387      C1388   1.403       .  A
C1387      C1392   1.409       .  A
C1387      H1394   1.085       .  S
C1388      C1389   1.412       .  A
C1389      C1390   1.398       .  A
C1389      C1396   1.507       .  S
C1390      C1391   1.404       .  A
C1390      H1395   1.085       .  S
C1391      C1392   1.417       .  A
C1392      C1393   1.503       .  S
C1393      H1397   1.111       .  S
C1393      H1398   1.104       .  S
C1393      H1399   1.110       .  S
C1396      H1400   1.107       .  S
C1396      H1401   1.103       .  S
C1396      H1402   1.111       .  S
C1403      C1404   1.401       .  A
C1403      C1408   1.398       .  A
C1403      H1410   1.074       .  S
C1404      C1405   1.418       .  A
C1405      C1406   1.409       .  A
C1405      C1412   1.502       .  S
C1406      C1407   1.401       .  A
C1406      H1411   1.084       .  S
C1407      C1408   1.414       .  A
C1408      C1409   1.509       .  S
C1409      H1413   1.110       .  S
C1409      H1414   1.107       .  S
C1409      H1415   1.111       .  S
C1412      H1416   1.107       .  S
C1412      H1417   1.110       .  S
C1412      H1418   1.111       .  S
C1419      C1420   1.404       .  A
C1419      C1424   1.403       .  A
C1419      H1426   1.084       .  S
C1420      C1421   1.422       .  A
C1421      C1422   1.406       .  A
C1421      C1428   1.507       .  S
C1422      C1423   1.400       .  A
C1422      H1427   1.084       .  S
C1423      C1424   1.413       .  A
C1424      C1425   1.508       .  S
C1425      H1429   1.111       .  S
C1425      H1430   1.110       .  S
C1425      H1431   1.110       .  S
C1428      H1432   1.110       .  S
C1428      H1433   1.106       .  S
C1428      H1434   1.110       .  S
C1435      C1436   1.403       .  A
C1435      C1440   1.394       .  A
C1435      H1442   1.081       .  S
C1436      C1437   1.420       .  A
C1437      C1438   1.413       .  A
C1437      C1444   1.502       .  S
C1438      C1439   1.415       .  A
C1438      H1443   1.072       .  S
C1439      C1440   1.421       .  A
C1440      C1441   1.504       .  S
C1441      H1445   1.111       .  S
C1441      H1446   1.110       .  S
C1441      H1447   1.107       .  S
C1444      H1448   1.110       .  S
C1444      H1449   1.103       .  S
C1444      H1450   1.109       .  S
C1451      C1452   1.409       .  A
C1451      C1456   1.408       .  A
C1451      H1458   1.084       .  S
C1452      C1453   1.422       .  A
C1453      C1454   1.400       .  A
C1453      C1460   1.508       .  S
C1454      C1455   1.398       .  A
C1454      H1459   1.083       .  S
C1455      C1456   1.413       .  A
C1456      C1457   1.505       .  S
C1457      H1461   1.110       .  S
C1457      H1462   1.109       .  S
C1460      H1464   1.104       .  S
C1460      H1465   1.104       .  S
C1460      H1466   1.111       .  S
C1467      C1468   1.415       .  A
C1467      C1472   1.411       .  A
C1467      H1474   1.070       .  S
C1468      C1469   1.431       .  A
C1469      C1470   1.398       .  A
C1469      C1476   1.510       .  S
C1470      C1471   1.400       .  A
C1470      H1475   1.082       .  S
C1471      C1472   1.421       .  A
C1472      C1473   1.505       .  S
C1473      H1477   1.111       .  S
C1473      H1478   1.110       .  S
C1473      H1479   1.103       .  S
C1476      H1480   1.110       .  S
C1476      H1481   1.103       .  S
C1476      H1482   1.112       .  S
C1483      H1484   1.106       .  S
C1483      C1489   1.555       .  S
C1483      C1488   1.544       .  S
C1483      C1487   1.543       .  S
C1485      H1486   1.105       .  S
C1485      C1491   1.527       .  S
C1485      C1490   1.555       .  S
C1485      C1492   1.539       .  S
C1487      C1490   1.386       .  D
C1487      C1946   1.502       .  S
C1488      C1491   1.365       .  D
C1488      C1898   1.498       .  S
C1489      C1492   1.382       .  D
C1489      C1914   1.494       .  S
C1490      C1965   1.508       .  S
C1491      C1882   1.487       .  S
C1492      C1930   1.512       .  S
O1493      C1503   1.266       .  A
O1494      C1504   1.264       .  A
O1494      V1501   1.906       .  S
O1495      C1505   1.264       .  A
O1496      C1506   1.266       .  A
O1496      V1501   1.904       .  S
O1497      C1506   1.265       .  A
O1497      V1502   1.903       .  S
O1498      C1505   1.263       .  A
O1499      C1504   1.263       .  A
O1499      V1502   1.897       .  S
O1500      C1503   1.263       .  A
V1501      V1502   2.087       .  T
C1503      C1869   1.483       .  S
C1504      C1834   1.472       .  S
C1505      C1818   1.470       .  S
C1506      C1853   1.487       .  S
O1507      C1517   1.264       .  A
O1507      V1515   1.896       .  S
O1508      C1518   1.264       .  A
O1509      C1519   1.263       .  A
O1510      C1520   1.263       .  A
O1511      C1520   1.264       .  A
O1511      V1516   1.902   1_565  S
O1512      C1519   1.266       .  A
O1513      C1518   1.264       .  A
O1514      C1517   1.261       .  A
C1517      C1805   1.468       .  S
C1518      C1770   1.484       .  S
C1519      C1754   1.485       .  S
C1520      C1789   1.473       .  S
O1521      C1531   1.262       .  A
O1521      V1529   1.892       .  S
O1522      C1532   1.262       .  A
O1522      V3011   1.894   1_455  S
O1523      C1533   1.265       .  A
O1523      V3505   1.902   1_455  S
O1524      C1534   1.264       .  A
O1525      C1534   1.263       .  A
O1525      V1530   1.899       .  S
O1526      C1533   1.264       .  A
O1526      V3012   1.908   1_456  S
O1527      C1532   1.267       .  A
O1527      V3506   1.913   1_455  S
O1528      C1531   1.268       .  A
V1529      O3004   1.894   1_556  S
V1529      O3499   1.902       .  S
V1530      O3008   1.908       .  S
V1530      O3503   1.913       .  S
C1531      C1690   1.482       .  S
C1532      C1725   1.479       .  S
C1533      C1709   1.476       .  S
C1534      C1741   1.471       .  S
C1535      C1933   1.527       .  S
C1535      C3512   1.432       .  A
C1535      C1540   1.422       .  A
C1536      C1674   1.474       .  S
C1536      C3511   1.432   1_455  A
C1536      C1537   1.405       .  A
C1537      C1538   1.389       .  A
C1537      H1542   1.086       .  S
C1538      C1821   1.478       .  S
C1538      C3515   1.406   1_455  A
C1539      C1757   1.493       .  S
C1539      C3514   1.406       .  A
C1539      C1540   1.402       .  A
C1540      H1541   1.081       .  S
C1543      C1658   1.480       .  S
C1543      C1544   1.419       .  A
C1543      C1548   1.402       .  A
C1544      C1885   1.487       .  S
C1544      C1545   1.409       .  A
C1545      C1546   1.398       .  A
C1545      H1550   1.084       .  S
C1546      C1738   1.492       .  S
C1546      C1547   1.412       .  A
C1547      C1802   1.473       .  S
C1547      C1548   1.396       .  A
C1548      H1549   1.085       .  S
C1551      C1642   1.495       .  S
C1551      C3528   1.420   1_455  A
C1551      C1556   1.408       .  A
C1552      C1917   1.480       .  S
C1552      C3527   1.420       .  A
C1552      C1553   1.404       .  A
C1553      C1554   1.399       .  A
C1553      H1558   1.085       .  S
C1554      C1773   1.485       .  S
C1554      C3531   1.414       .  A
C1555      C1837   1.482       .  S
C1555      C3530   1.414   1_455  A
C1555      C1556   1.392       .  A
C1556      H1557   1.085       .  S
C1559      C1626   1.531       .  S
C1559      C1560   1.435       .  A
C1559      C1564   1.416       .  A
C1560      C1901   1.477       .  S
C1560      C1561   1.412       .  A
C1561      C1562   1.393       .  A
C1561      H1566   1.086       .  S
C1562      C1693   1.490       .  S
C1562      C1563   1.405       .  A
C1563      C1786   1.479       .  S
C1563      C1564   1.398       .  A
C1564      H1565   1.081       .  S
C1567      C1949   1.484       .  S
C1567      C1572   1.409       .  A
C1568      C1613   1.489       .  S
C1568      C1569   1.406       .  A
C1569      C1570   1.395       .  A
C1569      H1574   1.085       .  S
C1570      C1706   1.479       .  S
C1571      C1850   1.489       .  S
C1571      C1572   1.405       .  A
C1572      H1573   1.085       .  S
C1575      C1962   1.534       .  S
C1575      C1580   1.413       .  A
C1576      C1597   1.482       .  S
C1576      C1577   1.413       .  A
C1577      C1578   1.400       .  A
C1577      H1582   1.083       .  S
C1578      C1722   1.501       .  S
C1579      C1866   1.483       .  S
C1579      C1580   1.399       .  A
C1580      H1581   1.080       .  S
C1583      H1584   1.109       .  S
C1583      C1589   1.542       .  S
C1583      C1588   1.554       .  S
C1583      C1587   1.549       .  S
C1585      H1586   1.106       .  S
C1585      C1591   1.559       .  S
C1585      C1590   1.529       .  S
C1585      C1592   1.542       .  S
C1587      C1590   1.367       .  D
C1587      C1677   1.492       .  S
C1588      C1591   1.392       .  D
C1588      C1661   1.504       .  S
C1589      C1592   1.374       .  D
C1589      C1594   1.503       .  S
C1590      C1645   1.487       .  S
C1591      C1629   1.526       .  S
C1592      C1610   1.491       .  S
C1593      C1594   1.403       .  A
C1593      C1598   1.399       .  A
C1593      H1600   1.071       .  S
C1594      C1595   1.420       .  A
C1595      C1596   1.411       .  A
C1595      C1602   1.504       .  S
C1596      C1597   1.402       .  A
C1596      H1601   1.084       .  S
C1597      C1598   1.411       .  A
C1598      C1599   1.509       .  S
C1599      H1603   1.111       .  S
C1599      H1604   1.109       .  S
C1599      H1605   1.110       .  S
C1602      H1606   1.106       .  S
C1602      H1607   1.110       .  S
C1602      H1608   1.111       .  S
C1609      C1610   1.404       .  A
C1609      C1614   1.411       .  A
C1609      H1616   1.084       .  S
C1610      C1611   1.413       .  A
C1611      C1612   1.397       .  A
C1611      C1618   1.501       .  S
C1612      C1613   1.402       .  A
C1612      H1617   1.085       .  S
C1613      C1614   1.418       .  A
C1614      C1615   1.502       .  S
C1615      H1619   1.111       .  S
C1615      H1620   1.104       .  S
C1618      H1622   1.108       .  S
C1618      H1623   1.101       .  S
C1618      H1624   1.111       .  S
C1625      C1626   1.414       .  A
C1625      C1630   1.415       .  A
C1625      H1632   1.073       .  S
C1626      C1627   1.425       .  A
C1627      C1628   1.402       .  A
C1627      C1634   1.512       .  S
C1628      C1629   1.407       .  A
C1628      H1633   1.079       .  S
C1629      C1630   1.426       .  A
C1630      C1631   1.506       .  S
C1631      H1635   1.111       .  S
C1631      H1636   1.110       .  S
C1631      H1637   1.105       .  S
C1634      H1638   1.110       .  S
C1634      H1639   1.108       .  S
C1634      H1640   1.111       .  S
C1641      C1642   1.405       .  A
C1641      C1646   1.409       .  A
C1641      H1648   1.079       .  S
C1642      C1643   1.420       .  A
C1643      C1644   1.391       .  A
C1643      C1650   1.510       .  S
C1644      C1645   1.396       .  A
C1644      H1649   1.085       .  S
C1645      C1646   1.418       .  A
C1646      C1647   1.501       .  S
C1647      H1651   1.110       .  S
C1647      H1652   1.105       .  S
C1647      H1653   1.101       .  S
C1650      H1654   1.109       .  S
C1650      H1655   1.110       .  S
C1650      H1656   1.111       .  S
C1657      C1658   1.394       .  A
C1657      C1662   1.394       .  A
C1657      H1664   1.085       .  S
C1658      C1659   1.410       .  A
C1659      C1660   1.411       .  A
C1659      C1666   1.504       .  S
C1660      C1661   1.411       .  A
C1660      H1665   1.083       .  S
C1661      C1662   1.423       .  A
C1662      C1663   1.500       .  S
C1663      H1667   1.111       .  S
C1663      H1668   1.110       .  S
C1663      H1669   1.088       .  S
C1666      H1670   1.110       .  S
C1666      H1671   1.110       .  S
C1666      H1672   1.111       .  S
C1673      C1674   1.399       .  A
C1673      C1678   1.396       .  A
C1673      H1680   1.086       .  S
C1674      C1675   1.410       .  A
C1675      C1676   1.407       .  A
C1675      C1682   1.504       .  S
C1676      C1677   1.406       .  A
C1676      H1681   1.084       .  S
C1677      C1678   1.420       .  A
C1678      C1679   1.506       .  S
C1679      H1683   1.111       .  S
C1679      H1684   1.110       .  S
C1679      H1685   1.104       .  S
C1682      H1686   1.111       .  S
C1682      H1687   1.110       .  S
C1682      H1688   1.111       .  S
C1689      C1690   1.406       .  A
C1689      C1694   1.411       .  A
C1689      H1696   1.084       .  S
C1690      C1691   1.418       .  A
C1691      C1692   1.399       .  A
C1691      C1698   1.508       .  S
C1692      C1693   1.400       .  A
C1692      H1697   1.084       .  S
C1693      C1694   1.412       .  A
C1694      C1695   1.504       .  S
C1695      H1699   1.111       .  S
C1695      H1700   1.110       .  S
C1695      H1701   1.108       .  S
C1698      H1702   1.104       .  S
C1698      H1703   1.110       .  S
C1698      H1704   1.111       .  S
C1705      C1706   1.400       .  A
C1705      C1710   1.404       .  A
C1705      H1712   1.084       .  S
C1706      C1707   1.411       .  A
C1707      C1708   1.401       .  A
C1707      C1714   1.508       .  S
C1708      C1709   1.401       .  A
C1708      H1713   1.080       .  S
C1709      C1710   1.416       .  A
C1710      C1711   1.504       .  S
C1711      H1715   1.110       .  S
C1711      H1716   1.108       .  S
C1711      H1717   1.110       .  S
C1714      H1718   1.110       .  S
C1714      H1719   1.108       .  S
C1714      H1720   1.111       .  S
C1721      C1722   1.404       .  A
C1721      C1726   1.400       .  A
C1722      C1723   1.422       .  A
C1723      C1724   1.411       .  A
C1723      C1730   1.508       .  S
C1724      C1725   1.403       .  A
C1724      H1729   1.084       .  S
C1725      C1726   1.411       .  A
C1726      C1727   1.508       .  S
C1727      H1732   1.110       .  S
C1730      H1734   1.110       .  S
C1730      H1735   1.108       .  S
C1730      H1736   1.111       .  S
C1737      C1738   1.406       .  A
C1737      C1742   1.404       .  A
C1737      H1744   1.083       .  S
C1738      C1739   1.417       .  A
C1739      C1740   1.405       .  A
C1739      C1746   1.509       .  S
C1740      C1741   1.400       .  A
C1740      H1745   1.084       .  S
C1741      C1742   1.409       .  A
C1742      C1743   1.507       .  S
C1743      H1747   1.111       .  S
C1743      H1748   1.110       .  S
C1743      H1749   1.110       .  S
C1746      H1750   1.108       .  S
C1746      H1751   1.108       .  S
C1746      H1752   1.111       .  S
C1753      C1754   1.402       .  A
C1753      C1758   1.403       .  A
C1753      H1760   1.084       .  S
C1754      C1755   1.419       .  A
C1755      C1756   1.406       .  A
C1755      C1762   1.507       .  S
C1756      C1757   1.403       .  A
C1756      H3737   1.084       .  S
C1757      C1758   1.415       .  A
C1758      C1759   1.502       .  S
C1759      H1763   1.111       .  S
C1759      H1764   1.110       .  S
C1759      H1765   1.102       .  S
H1761      C3732   1.084       .  S
C1762      H1766   1.110       .  S
C1762      H1767   1.109       .  S
C1762      H3744   1.111       .  S
H1768      C3738   1.111       .  S
C1769      C1770   1.407       .  A
C1769      C1774   1.401       .  A
C1769      H1776   1.084       .  S
C1770      C1771   1.418       .  A
C1771      C1772   1.399       .  A
C1771      C1778   1.508       .  S
C1772      C1773   1.402       .  A
C1772      H1777   1.083       .  S
C1773      C1774   1.414       .  A
C1774      C3751   1.509       .  S
C1775      H1779   1.111       .  S
C1775      H1780   1.110       .  S
C1775      H1781   1.106       .  S
C1775      C3750   1.509       .  S
C1778      H1782   1.103       .  S
C1778      H1783   1.108       .  S
C1778      H1784   1.111       .  S
C1785      C1786   1.398       .  A
C1785      C1790   1.399       .  A
C1785      H1792   1.084       .  S
C1786      C1787   1.414       .  A
C1787      C1788   1.404       .  A
C1787      C1794   1.506       .  S
C1788      C1789   1.402       .  A
C1788      H1793   1.084       .  S
C1789      C1790   1.412       .  A
C1790      C1791   1.502       .  S
C1791      H1795   1.111       .  S
C1791      H1796   1.109       .  S
C1791      H1797   1.110       .  S
C1794      H1798   1.110       .  S
C1794      H1799   1.110       .  S
C1794      H1800   1.108       .  S
C1801      C1802   1.401       .  A
C1801      C1806   1.401       .  A
C1801      H1808   1.084       .  S
C1802      C1803   1.411       .  A
C1803      C1804   1.397       .  A
C1803      C1810   1.506       .  S
C1804      C1805   1.401       .  A
C1804      H1809   1.083       .  S
C1805      C1806   1.413       .  A
C1806      C1807   1.507       .  S
C1807      H1811   1.111       .  S
C1807      H1812   1.111       .  S
C1807      H1813   1.109       .  S
C1810      H1814   1.110       .  S
C1810      H1815   1.108       .  S
C1810      H1816   1.110       .  S
C1817      C1818   1.402       .  A
C1817      C1822   1.406       .  A
C1817      H1824   1.084       .  S
C1818      C1819   1.409       .  A
C1819      C1820   1.395       .  A
C1819      C1826   1.496       .  S
C1820      C1821   1.396       .  A
C1820      H1825   1.083       .  S
C1821      C1822   1.415       .  A
C1822      C3799   1.507       .  S
C1823      H1827   1.111       .  S
C1823      H1828   1.110       .  S
C1823      H1829   1.110       .  S
C1823      C3798   1.507       .  S
C1826      H1830   1.110       .  S
C1826      H1831   1.110       .  S
C1826      H1832   1.111       .  S
C1833      C1834   1.399       .  A
C1833      C1838   1.399       .  A
C1833      H1840   1.071       .  S
C1834      C1835   1.409       .  A
C1835      C1836   1.404       .  A
C1835      C1842   1.505       .  S
C1836      C1837   1.407       .  A
C1836      H1841   1.083       .  S
C1837      C1838   1.407       .  A
C1838      C1839   1.506       .  S
C1839      H1843   1.111       .  S
C1839      H3820   1.104   1_455  S
C1839      H1845   1.110       .  S
C1842      H1846   1.108       .  S
C1842      H1847   1.110       .  S
C1842      H1848   1.111       .  S
H1844      C3815   1.104       .  S
C1849      C1850   1.402       .  A
C1849      C1854   1.405       .  A
C1849      H1856   1.082       .  S
C1850      C1851   1.410       .  A
C1851      C1852   1.406       .  A
C1851      C1858   1.506       .  S
C1852      C1853   1.408       .  A
C1852      H1857   1.084       .  S
C1853      C1854   1.421       .  A
C1854      C1855   1.510       .  S
C1855      H1859   1.111       .  S
C1855      H1860   1.103       .  S
C1855      H1861   1.111       .  S
C1858      H1862   1.110       .  S
C1858      H1863   1.110       .  S
C1858      H1864   1.111       .  S
C1865      C1866   1.400       .  A
C1865      C1870   1.407       .  A
C1865      H1872   1.084       .  S
C1866      C1867   1.416       .  A
C1867      C1868   1.398       .  A
C1867      C1874   1.508       .  S
C1868      C1869   1.402       .  A
C1868      H1873   1.085       .  S
C1869      C1870   1.420       .  A
C1870      C1871   1.508       .  S
C1871      H1875   1.111       .  S
C1871      H1876   1.109       .  S
C1871      H1877   1.111       .  S
C1874      H1878   1.107       .  S
C1874      H1879   1.110       .  S
C1874      H1880   1.111       .  S
C1881      C1882   1.403       .  A
C1881      C1886   1.409       .  A
C1881      H1888   1.085       .  S
C1882      C1883   1.412       .  A
C1883      C1884   1.398       .  A
C1883      C1890   1.507       .  S
C1884      C1885   1.404       .  A
C1884      H1889   1.085       .  S
C1885      C1886   1.417       .  A
C1886      C1887   1.503       .  S
C1887      H1891   1.111       .  S
C1887      H1892   1.104       .  S
C1887      H1893   1.110       .  S
C1890      H1894   1.107       .  S
C1890      H1895   1.103       .  S
C1890      H1896   1.111       .  S
C1897      C1898   1.401       .  A
C1897      C1902   1.398       .  A
C1897      H1904   1.074       .  S
C1898      C1899   1.418       .  A
C1899      C1900   1.409       .  A
C1899      C1906   1.502       .  S
C1900      C1901   1.401       .  A
C1900      H1905   1.084       .  S
C1901      C1902   1.414       .  A
C1902      C1903   1.509       .  S
C1903      H1907   1.110       .  S
C1903      H1908   1.107       .  S
C1903      H1909   1.111       .  S
C1906      H1910   1.107       .  S
C1906      H1911   1.110       .  S
C1906      H1912   1.111       .  S
C1913      C1914   1.404       .  A
C1913      C1918   1.403       .  A
C1913      H1920   1.084       .  S
C1914      C1915   1.422       .  A
C1915      C1916   1.406       .  A
C1915      C1922   1.507       .  S
C1916      C1917   1.400       .  A
C1916      H1921   1.084       .  S
C1917      C1918   1.413       .  A
C1918      C1919   1.508       .  S
C1919      H1923   1.111       .  S
C1919      H1924   1.110       .  S
C1919      H1925   1.110       .  S
C1922      H1926   1.110       .  S
C1922      H1927   1.106       .  S
C1922      H1928   1.110       .  S
C1929      C1930   1.403       .  A
C1929      C1934   1.394       .  A
C1929      H1936   1.081       .  S
C1930      C1931   1.420       .  A
C1931      C1932   1.413       .  A
C1931      C1938   1.502       .  S
C1932      C1933   1.415       .  A
C1932      H1937   1.072       .  S
C1933      C1934   1.421       .  A
C1934      C1935   1.504       .  S
C1935      H1939   1.111       .  S
C1935      H1940   1.110       .  S
C1935      H1941   1.107       .  S
C1938      H1942   1.110       .  S
C1938      H1943   1.103       .  S
C1938      H1944   1.109       .  S
C1945      C1946   1.409       .  A
C1945      C1950   1.408       .  A
C1945      H1952   1.084       .  S
C1946      C1947   1.422       .  A
C1947      C1948   1.400       .  A
C1947      C1954   1.508       .  S
C1948      C1949   1.398       .  A
C1948      H1953   1.083       .  S
C1949      C1950   1.413       .  A
C1950      C1951   1.505       .  S
C1951      H1955   1.110       .  S
C1951      H1956   1.109       .  S
C1954      H1958   1.104       .  S
C1954      H1959   1.104       .  S
C1954      H1960   1.111       .  S
C1961      C1962   1.415       .  A
C1961      C1966   1.411       .  A
C1961      H1968   1.070       .  S
C1962      C1963   1.431       .  A
C1963      C1964   1.398       .  A
C1963      C1970   1.510       .  S
C1964      C1965   1.400       .  A
C1964      H1969   1.082       .  S
C1965      C1966   1.421       .  A
C1966      C1967   1.505       .  S
C1967      H1971   1.111       .  S
C1967      H1972   1.110       .  S
C1967      H1973   1.103       .  S
C1970      H1974   1.110       .  S
C1970      H1975   1.103       .  S
C1970      H1976   1.112       .  S
C1977      H1978   1.106       .  S
C1977      C1983   1.555       .  S
C1977      C1982   1.544       .  S
C1977      C1981   1.543       .  S
C1979      H1980   1.105       .  S
C1979      C1985   1.527       .  S
C1979      C1984   1.555       .  S
C1979      C1986   1.539       .  S
C1981      C1984   1.386       .  D
C1981      C2440   1.502       .  S
C1982      C1985   1.365       .  D
C1982      C2392   1.498       .  S
C1983      C1986   1.382       .  D
C1983      C2408   1.494       .  S
C1984      C2459   1.508       .  S
C1985      C2376   1.487       .  S
C1986      C2424   1.512       .  S
O1987      C1997   1.266       .  A
O1987      V2489   1.899   1_554  S
O1988      C1998   1.264       .  A
O1988      V1995   1.906       .  S
O1989      C1999   1.264       .  A
O1989      V2489   1.905   1_554  S
O1990      C2000   1.266       .  A
O1990      V1995   1.904       .  S
O1991      C2000   1.265       .  A
O1991      V1996   1.903       .  S
O1992      C1999   1.263       .  A
O1992      V2490   1.896   1_554  S
O1993      C1998   1.263       .  A
O1993      V1996   1.897       .  S
O1994      C1997   1.263       .  A
O1994      V2490   1.897   1_554  S
V1995      O2481   1.899       .  S
V1995      O2483   1.905       .  S
V1995      V1996   2.087       .  T
V1996      O2486   1.896       .  S
V1996      O2488   1.897       .  S
C1997      C2363   1.483       .  S
C1998      C2328   1.472       .  S
C1999      C2312   1.470       .  S
C2000      C2347   1.487       .  S
O2001      C2011   1.264       .  A
O2001      V2009   1.896   1_554  S
O2002      C2012   1.264       .  A
O2002      V3491   1.898   1_545  S
O2003      C2013   1.263       .  A
O2003      V2997   1.898   1_544  S
O2004      C2014   1.263       .  A
O2004      V2503   1.897       .  S
O2005      C2014   1.264       .  A
O2005      V2010   1.902       .  S
O2006      C2013   1.266       .  A
O2006      V3492   1.903   1_554  S
O2007      C2012   1.264       .  A
O2007      V2998   1.894       .  S
O2008      C2011   1.261       .  A
O2008      V2504   1.891   1_554  S
V2009      O3484   1.898       .  S
V2009      O2991   1.898   1_556  S
V2009      O2498   1.897       .  S
V2009      V2504   2.087       .  T
V2010      O3488   1.903       .  S
V2010      O2995   1.894       .  S
V2010      O2502   1.891       .  S
V2010      V2503   2.087       .  T
C2011      C2299   1.468       .  S
C2012      C2264   1.484       .  S
C2013      C2248   1.485       .  S
C2014      C2283   1.473       .  S
O2015      C2025   1.262       .  A
O2015      V2023   1.892       .  S
O2016      C2026   1.262       .  A
O2017      C2027   1.265       .  A
O2018      C2028   1.264       .  A
O2018      V2517   1.903   1_554  S
O2019      C2028   1.263       .  A
O2019      V2024   1.899       .  S
O2020      C2027   1.264       .  A
O2021      C2026   1.267       .  A
O2022      C2025   1.268       .  A
O2022      V2518   1.917       .  S
V2023      O2512   1.903       .  S
V2023      V2518   2.088       .  T
V2024      O2516   1.917   1_554  S
V2024      V2517   2.088   1_554  T
C2025      C2184   1.482       .  S
C2026      C2219   1.479       .  S
C2027      C2203   1.476       .  S
C2028      C2235   1.471       .  S
C2029      C2427   1.527       .  S
C2029      C2034   1.422       .  A
C2030      C2168   1.474       .  S
C2030      C2031   1.405       .  A
C2031      C2032   1.389       .  A
C2031      H2036   1.086       .  S
C2032      C2315   1.478       .  S
C2033      C2251   1.493       .  S
C2033      C2034   1.402       .  A
C2034      H2035   1.081       .  S
C2037      C2152   1.480       .  S
C2037      C2038   1.419       .  A
C2037      C2042   1.402       .  A
C2038      C2379   1.487       .  S
C2038      C2039   1.409       .  A
C2039      C2040   1.398       .  A
C2039      H2044   1.084       .  S
C2040      C2232   1.492       .  S
C2040      C2041   1.412       .  A
C2041      C2296   1.473       .  S
C2041      C2042   1.396       .  A
C2042      H2043   1.085       .  S
C2045      C2136   1.495       .  S
C2045      C2050   1.408       .  A
C2046      C2411   1.480       .  S
C2046      C2047   1.404       .  A
C2047      C2048   1.399       .  A
C2047      H2052   1.085       .  S
C2048      C2267   1.485       .  S
C2049      C2331   1.482       .  S
C2049      C2050   1.392       .  A
C2050      H2051   1.085       .  S
C2053      C2120   1.531       .  S
C2053      C2054   1.435       .  A
C2053      C2058   1.416       .  A
C2054      C2395   1.477       .  S
C2054      C2055   1.412       .  A
C2055      C2056   1.393       .  A
C2055      H2060   1.086       .  S
C2056      C2187   1.490       .  S
C2056      C2057   1.405       .  A
C2057      C2280   1.479       .  S
C2057      C2058   1.398       .  A
C2058      H2059   1.081       .  S
C2061      C2443   1.484       .  S
C2061      C3050   1.419   1_545  A
C2061      C2066   1.409       .  A
C2062      C2107   1.489       .  S
C2062      C3049   1.419       .  A
C2062      C2063   1.406       .  A
C2063      C2064   1.395       .  A
C2063      H2068   1.085       .  S
C2064      C2200   1.479       .  S
C2064      C3053   1.410       .  A
C2065      C2344   1.489       .  S
C2065      C3052   1.410   1_545  A
C2065      C2066   1.405       .  A
C2066      H2067   1.085       .  S
C2069      C2456   1.534       .  S
C2069      C3058   1.435   1_545  A
C2069      C2074   1.413       .  A
C2070      C2091   1.482       .  S
C2070      C3057   1.435       .  A
C2070      C2071   1.413       .  A
C2071      C2072   1.400       .  A
C2071      H2076   1.083       .  S
C2072      C2216   1.501       .  S
C2072      C3061   1.411       .  A
C2073      C2360   1.483       .  S
C2073      C3060   1.411   1_545  A
C2073      C2074   1.399       .  A
C2074      H2075   1.080       .  S
C2077      H2078   1.109       .  S
C2077      C2083   1.542       .  S
C2077      C2082   1.554       .  S
C2077      C2081   1.549       .  S
C2079      H2080   1.106       .  S
C2079      C2085   1.559       .  S
C2079      C2084   1.529       .  S
C2079      C2086   1.542       .  S
C2081      C2084   1.367       .  D
C2081      C2171   1.492       .  S
C2082      C2085   1.392       .  D
C2082      C2155   1.504       .  S
C2083      C2086   1.374       .  D
C2083      C2088   1.503       .  S
C2084      C2139   1.487       .  S
C2085      C2123   1.526       .  S
C2086      C2104   1.491       .  S
C2087      C2088   1.403       .  A
C2087      C2092   1.399       .  A
C2087      H2094   1.071       .  S
C2088      C2089   1.420       .  A
C2089      C2090   1.411       .  A
C2089      C2096   1.504       .  S
C2090      C2091   1.402       .  A
C2090      H2095   1.084       .  S
C2091      C2092   1.411       .  A
C2092      C2093   1.509       .  S
C2093      H2097   1.111       .  S
C2093      H2098   1.109       .  S
C2093      H2099   1.110       .  S
C2096      H2100   1.106       .  S
C2096      H2101   1.110       .  S
C2096      H2102   1.111       .  S
C2103      C2104   1.404       .  A
C2103      C2108   1.411       .  A
C2103      H2110   1.084       .  S
C2104      C2105   1.413       .  A
C2105      C2106   1.397       .  A
C2105      C2112   1.501       .  S
C2106      C2107   1.402       .  A
C2106      H2111   1.085       .  S
C2107      C2108   1.418       .  A
C2108      C2109   1.502       .  S
C2109      H2113   1.111       .  S
C2109      H2114   1.104       .  S
C2109      H3103   1.110       .  S
C2112      H2116   1.108       .  S
C2112      H2117   1.101       .  S
C2112      H2118   1.111       .  S
H2115      C3097   1.110       .  S
C2119      C2120   1.414       .  A
C2119      C2124   1.415       .  A
C2119      H2126   1.073       .  S
C2120      C2121   1.425       .  A
C2121      C2122   1.402       .  A
C2121      C2128   1.512       .  S
C2122      C2123   1.407       .  A
C2122      H2127   1.079       .  S
C2123      C2124   1.426       .  A
C2124      C2125   1.506       .  S
C2125      H2129   1.111       .  S
C2125      H2130   1.110       .  S
C2125      H2131   1.105       .  S
C2128      H2132   1.110       .  S
C2128      H2133   1.108       .  S
C2128      H2134   1.111       .  S
C2135      C2136   1.405       .  A
C2135      C2140   1.409       .  A
C2135      H2142   1.079       .  S
C2136      C2137   1.420       .  A
C2137      C2138   1.391       .  A
C2137      C2144   1.510       .  S
C2138      C2139   1.396       .  A
C2138      H2143   1.085       .  S
C2139      C2140   1.418       .  A
C2140      C2141   1.501       .  S
C2141      H2145   1.110       .  S
C2141      H2146   1.105       .  S
C2141      H2147   1.101       .  S
C2144      H2148   1.109       .  S
C2144      H2149   1.110       .  S
C2144      H2150   1.111       .  S
C2151      C2152   1.394       .  A
C2151      C2156   1.394       .  A
C2151      H2158   1.085       .  S
C2152      C2153   1.410       .  A
C2153      C2154   1.411       .  A
C2153      C2160   1.504       .  S
C2154      C2155   1.411       .  A
C2154      H2159   1.083       .  S
C2155      C2156   1.423       .  A
C2156      C2157   1.500       .  S
C2157      H2161   1.111       .  S
C2157      H2162   1.110       .  S
C2157      H2163   1.088       .  S
C2160      H2164   1.110       .  S
C2160      H2165   1.110       .  S
C2160      H2166   1.111       .  S
C2167      C2168   1.399       .  A
C2167      C2172   1.396       .  A
C2167      H2174   1.086       .  S
C2168      C2169   1.410       .  A
C2169      C2170   1.407       .  A
C2169      C2176   1.504       .  S
C2170      C2171   1.406       .  A
C2170      H2175   1.084       .  S
C2171      C2172   1.420       .  A
C2172      C2173   1.506       .  S
C2173      H2177   1.111       .  S
C2173      H2178   1.110       .  S
C2173      H2179   1.104       .  S
C2176      H2180   1.111       .  S
C2176      H2181   1.110       .  S
C2176      H2182   1.111       .  S
C2183      C2184   1.406       .  A
C2183      C2188   1.411       .  A
C2183      H2190   1.084       .  S
C2184      C2185   1.418       .  A
C2185      C2186   1.399       .  A
C2185      C2192   1.508       .  S
C2186      C2187   1.400       .  A
C2186      H2191   1.084       .  S
C2187      C2188   1.412       .  A
C2188      C2189   1.504       .  S
C2189      H2193   1.111       .  S
C2189      H2194   1.110       .  S
C2189      H2195   1.108       .  S
C2192      H2196   1.104       .  S
C2192      H2197   1.110       .  S
C2192      H2198   1.111       .  S
C2199      C2200   1.400       .  A
C2199      C2204   1.404       .  A
C2199      H2206   1.084       .  S
C2200      C2201   1.411       .  A
C2201      C2202   1.401       .  A
C2201      C2208   1.508       .  S
C2202      C2203   1.401       .  A
C2202      H2207   1.080       .  S
C2203      C2204   1.416       .  A
C2204      C2205   1.504       .  S
C2205      H2209   1.110       .  S
C2205      H2210   1.108       .  S
C2205      H2211   1.110       .  S
C2208      H2212   1.110       .  S
C2208      H2213   1.108       .  S
C2208      H2214   1.111       .  S
C2215      C2216   1.404       .  A
C2215      C2220   1.400       .  A
C2215      H3210   1.080       .  S
C2216      C2217   1.422       .  A
C2217      C2218   1.411       .  A
C2217      C2224   1.508       .  S
C2218      C2219   1.403       .  A
C2218      H2223   1.084       .  S
C2219      C2220   1.411       .  A
C2220      C2221   1.508       .  S
C2221      H3213   1.111       .  S
C2221      H2226   1.110       .  S
C2221      H3215   1.102       .  S
H2222      C3203   1.080       .  S
C2224      H2228   1.110       .  S
C2224      H2229   1.108       .  S
C2224      H2230   1.111       .  S
H2225      C3209   1.111       .  S
H2227      C3209   1.102       .  S
C2231      C2232   1.406       .  A
C2231      C2236   1.404       .  A
C2231      H2238   1.083       .  S
C2232      C2233   1.417       .  A
C2233      C2234   1.405       .  A
C2233      C2240   1.509       .  S
C2234      C2235   1.400       .  A
C2234      H2239   1.084       .  S
C2235      C2236   1.409       .  A
C2236      C2237   1.507       .  S
C2237      H2241   1.111       .  S
C2237      H2242   1.110       .  S
C2237      H2243   1.110       .  S
C2240      H2244   1.108       .  S
C2240      H2245   1.108       .  S
C2240      H2246   1.111       .  S
C2247      C2248   1.402       .  A
C2247      C2252   1.403       .  A
C2247      H2254   1.084       .  S
C2248      C2249   1.419       .  A
C2249      C2250   1.406       .  A
C2249      C2256   1.507       .  S
C2250      C2251   1.403       .  A
C2251      C2252   1.415       .  A
C2252      C2253   1.502       .  S
C2253      H2257   1.111       .  S
C2253      H2258   1.110       .  S
C2253      H2259   1.102       .  S
C2256      H2260   1.110       .  S
C2256      H2261   1.109       .  S
C2263      C2264   1.407       .  A
C2263      C2268   1.401       .  A
C2263      H2270   1.084       .  S
C2264      C2265   1.418       .  A
C2265      C2266   1.399       .  A
C2265      C2272   1.508       .  S
C2266      C2267   1.402       .  A
C2266      H2271   1.083   1_655  S
C2267      C2268   1.414       .  A
C2269      H2273   1.111       .  S
C2269      H2274   1.110       .  S
C2269      H2275   1.106       .  S
C2272      H2276   1.103       .  S
C2272      H2277   1.108   1_655  S
C2272      H2278   1.111   1_655  S
C2279      C2280   1.398       .  A
C2279      C2284   1.399       .  A
C2279      H2286   1.084       .  S
C2280      C2281   1.414       .  A
C2281      C2282   1.404       .  A
C2281      C2288   1.506       .  S
C2282      C2283   1.402       .  A
C2282      H2287   1.084       .  S
C2283      C2284   1.412       .  A
C2284      C2285   1.502       .  S
C2285      H2289   1.111       .  S
C2285      H2290   1.109       .  S
C2285      H2291   1.110       .  S
C2288      H2292   1.110       .  S
C2288      H2293   1.110       .  S
C2288      H2294   1.108       .  S
C2295      C2296   1.401       .  A
C2295      C2300   1.401       .  A
C2295      H2302   1.084       .  S
C2296      C2297   1.411       .  A
C2297      C2298   1.397       .  A
C2297      C2304   1.506       .  S
C2298      C2299   1.401       .  A
C2298      H2303   1.083       .  S
C2299      C2300   1.413       .  A
C2300      C2301   1.507       .  S
C2301      H2305   1.111       .  S
C2301      H2306   1.111       .  S
C2301      H2307   1.109       .  S
C2304      H2308   1.110       .  S
C2304      H2309   1.108       .  S
C2304      H2310   1.110       .  S
C2311      C2312   1.402       .  A
C2311      C2316   1.406       .  A
C2311      H2318   1.084       .  S
C2312      C2313   1.409       .  A
C2313      C2314   1.395       .  A
C2313      C2320   1.496       .  S
C2314      C2315   1.396       .  A
C2314      H2319   1.083       .  S
C2315      C2316   1.415       .  A
C2317      H2321   1.111       .  S
C2317      H2322   1.110       .  S
C2317      H2323   1.110       .  S
C2320      H2324   1.110       .  S
C2320      H2325   1.110       .  S
C2320      H2326   1.111       .  S
C2327      C2328   1.399       .  A
C2327      C2332   1.399       .  A
C2327      H2334   1.071       .  S
C2328      C2329   1.409       .  A
C2329      C2330   1.404       .  A
C2329      C2336   1.505       .  S
C2330      C2331   1.407       .  A
C2330      H2335   1.083       .  S
C2331      C2332   1.407       .  A
C2332      C2333   1.506       .  S
C2333      H2337   1.111       .  S
C2333      H2339   1.110       .  S
C2336      H2340   1.108       .  S
C2336      H2341   1.110       .  S
C2336      H2342   1.111       .  S
C2343      C2344   1.402       .  A
C2343      C2348   1.405       .  A
C2343      H2350   1.082       .  S
C2344      C2345   1.410       .  A
C2345      C2346   1.406       .  A
C2345      C2352   1.506       .  S
C2346      C2347   1.408       .  A
C2346      H2351   1.084       .  S
C2347      C2348   1.421       .  A
C2348      C2349   1.510       .  S
C2349      H2353   1.111       .  S
C2349      H2354   1.103       .  S
C2349      H2355   1.111       .  S
C2352      H2356   1.110       .  S
C2352      H2357   1.110       .  S
C2352      H2358   1.111       .  S
C2359      C2360   1.400       .  A
C2359      C2364   1.407       .  A
C2359      H2366   1.084       .  S
C2360      C2361   1.416       .  A
C2361      C2362   1.398       .  A
C2361      C2368   1.508       .  S
C2362      C2363   1.402       .  A
C2362      H2367   1.085       .  S
C2363      C2364   1.420       .  A
C2364      C2365   1.508       .  S
C2365      H2369   1.111       .  S
C2365      H2370   1.109       .  S
C2365      H2371   1.111       .  S
C2368      H2372   1.107       .  S
C2368      H2373   1.110       .  S
C2368      H2374   1.111       .  S
C2375      C2376   1.403       .  A
C2375      C2380   1.409       .  A
C2375      H2382   1.085       .  S
C2376      C2377   1.412       .  A
C2377      C2378   1.398       .  A
C2377      C2384   1.507       .  S
C2378      C2379   1.404       .  A
C2378      H2383   1.085       .  S
C2379      C2380   1.417       .  A
C2380      C2381   1.503       .  S
C2381      H2385   1.111       .  S
C2381      H2386   1.104       .  S
C2381      H2387   1.110       .  S
C2384      H2388   1.107       .  S
C2384      H2389   1.103       .  S
C2384      H2390   1.111       .  S
C2391      C2392   1.401       .  A
C2391      C2396   1.398       .  A
C2391      H2398   1.074       .  S
C2392      C2393   1.418       .  A
C2393      C2394   1.409       .  A
C2393      C2400   1.502       .  S
C2394      C2395   1.401       .  A
C2394      H2399   1.084       .  S
C2395      C2396   1.414       .  A
C2396      C2397   1.509       .  S
C2397      H2401   1.110       .  S
C2397      H2402   1.107       .  S
C2397      H2403   1.111       .  S
C2400      H2404   1.107       .  S
C2400      H2405   1.110       .  S
C2400      H2406   1.111       .  S
C2407      C2408   1.404       .  A
C2407      C2412   1.403       .  A
C2407      H2414   1.084       .  S
C2408      C2409   1.422       .  A
C2409      C2410   1.406       .  A
C2409      C2416   1.507       .  S
C2410      C2411   1.400       .  A
C2410      H2415   1.084       .  S
C2411      C2412   1.413       .  A
C2412      C2413   1.508       .  S
C2413      H2417   1.111       .  S
C2413      H2418   1.110       .  S
C2413      H2419   1.110       .  S
C2416      H2420   1.110       .  S
C2416      H2421   1.106       .  S
C2416      H2422   1.110       .  S
C2423      C2424   1.403       .  A
C2423      C2428   1.394       .  A
C2423      H2430   1.081       .  S
C2424      C2425   1.420       .  A
C2425      C2426   1.413       .  A
C2425      C2432   1.502       .  S
C2426      C2427   1.415       .  A
C2426      H2431   1.072       .  S
C2427      C2428   1.421       .  A
C2428      C2429   1.504       .  S
C2429      H2433   1.111       .  S
C2429      H2434   1.110       .  S
C2429      H2435   1.107       .  S
C2432      H2436   1.110       .  S
C2432      H2437   1.103       .  S
C2432      H2438   1.109       .  S
C2439      C2440   1.409       .  A
C2439      C2444   1.408       .  A
C2439      H2446   1.084       .  S
C2440      C2441   1.422       .  A
C2441      C2442   1.400       .  A
C2441      C2448   1.508       .  S
C2442      C2443   1.398       .  A
C2442      H2447   1.083       .  S
C2443      C2444   1.413       .  A
C2444      C2445   1.505       .  S
C2445      H2449   1.110       .  S
C2445      H2450   1.109       .  S
C2445      H3439   1.111       .  S
C2448      H2452   1.104       .  S
C2448      H2453   1.104       .  S
C2448      H2454   1.111       .  S
H2451      C3433   1.111       .  S
C2455      C2456   1.415       .  A
C2455      C2460   1.411       .  A
C2455      H2462   1.070       .  S
C2456      C2457   1.431       .  A
C2457      C2458   1.398       .  A
C2457      C2464   1.510       .  S
C2458      C2459   1.400       .  A
C2458      H2463   1.082       .  S
C2459      C2460   1.421       .  A
C2460      C2461   1.505       .  S
C2461      H2465   1.111       .  S
C2461      H2466   1.110       .  S
C2461      H2467   1.103       .  S
C2464      H2468   1.110       .  S
C2464      H2469   1.103       .  S
C2464      H2470   1.112       .  S
C2471      H2472   1.106       .  S
C2471      C2477   1.555       .  S
C2471      C2476   1.544       .  S
C2471      C2475   1.543       .  S
C2473      H2474   1.105       .  S
C2473      C2479   1.527       .  S
C2473      C2478   1.555       .  S
C2473      C2480   1.539       .  S
C2475      C2478   1.386       .  D
C2475      C2934   1.502       .  S
C2476      C2479   1.365       .  D
C2476      C2886   1.498       .  S
C2477      C2480   1.382       .  D
C2477      C2902   1.494       .  S
C2478      C2953   1.508       .  S
C2479      C2870   1.487       .  S
C2480      C2918   1.512       .  S
O2481      C2491   1.266       .  A
O2482      C2492   1.264       .  A
O2482      V2489   1.906       .  S
O2483      C2493   1.264       .  A
O2484      C2494   1.266       .  A
O2484      V2489   1.904       .  S
O2485      C2494   1.265       .  A
O2485      V2490   1.903       .  S
O2486      C2493   1.263       .  A
O2487      C2492   1.263       .  A
O2487      V2490   1.897       .  S
O2488      C2491   1.263       .  A
V2489      V2490   2.087       .  T
C2491      C2857   1.483       .  S
C2492      C2822   1.472       .  S
C2493      C2806   1.470       .  S
C2494      C2841   1.487       .  S
O2495      C2505   1.264       .  A
O2495      V2503   1.896       .  S
O2496      C2506   1.264       .  A
O2496      V2997   1.898   1_545  S
O2497      C2507   1.263       .  A
O2497      V3491   1.898   1_545  S
O2498      C2508   1.263       .  A
O2499      C2508   1.264       .  A
O2499      V2504   1.902       .  S
O2500      C2507   1.266       .  A
O2500      V2998   1.903       .  S
O2501      C2506   1.264       .  A
O2501      V3492   1.894       .  S
O2502      C2505   1.261       .  A
V2503      O2990   1.898       .  S
V2503      O3485   1.898       .  S
V2504      O2994   1.903   1_556  S
V2504      O3489   1.894       .  S
C2505      C2793   1.468       .  S
C2506      C2758   1.484       .  S
C2507      C2742   1.485       .  S
C2508      C2777   1.473       .  S
O2509      C2519   1.262       .  A
O2509      V2517   1.892       .  S
O2510      C2520   1.262       .  A
O2511      C2521   1.265       .  A
O2512      C2522   1.264       .  A
O2513      C2522   1.263       .  A
O2513      V2518   1.899       .  S
O2514      C2521   1.264       .  A
O2515      C2520   1.267       .  A
O2516      C2519   1.268       .  A
C2519      C2678   1.482       .  S
C2520      C2713   1.479       .  S
C2521      C2697   1.476       .  S
C2522      C2729   1.471       .  S
C2523      C2921   1.527       .  S
C2523      C2528   1.422       .  A
C2524      C2662   1.474       .  S
C2524      C2525   1.405       .  A
C2525      C2526   1.389       .  A
C2525      H2530   1.086       .  S
C2526      C2809   1.478       .  S
C2527      C2745   1.493       .  S
C2527      C2528   1.402       .  A
C2528      H2529   1.081       .  S
C2531      C2646   1.480       .  S
C2531      C2532   1.419       .  A
C2531      C2536   1.402       .  A
C2532      C2873   1.487       .  S
C2532      C2533   1.409       .  A
C2533      C2534   1.398       .  A
C2533      H2538   1.084       .  S
C2534      C2726   1.492       .  S
C2534      C2535   1.412       .  A
C2535      C2790   1.473       .  S
C2535      C2536   1.396       .  A
C2536      H2537   1.085       .  S
C2539      C2630   1.495       .  S
C2539      C2544   1.408       .  A
C2540      C2905   1.480       .  S
C2540      C2541   1.404       .  A
C2541      C2542   1.399       .  A
C2541      H2546   1.085       .  S
C2542      C2761   1.485       .  S
C2543      C2825   1.482       .  S
C2543      C2544   1.392       .  A
C2544      H2545   1.085       .  S
C2547      C2614   1.531       .  S
C2547      C2548   1.435       .  A
C2547      C2552   1.416       .  A
C2548      C2889   1.477       .  S
C2548      C2549   1.412       .  A
C2549      C2550   1.393       .  A
C2549      H2554   1.086       .  S
C2550      C2681   1.490       .  S
C2550      C2551   1.405       .  A
C2551      C2774   1.479       .  S
C2551      C2552   1.398       .  A
C2552      H2553   1.081       .  S
C2555      C2937   1.484       .  S
C2555      C3544   1.419   1_545  A
C2555      C2560   1.409       .  A
C2556      C2601   1.489       .  S
C2556      C3543   1.419       .  A
C2556      C2557   1.406       .  A
C2557      C2558   1.395       .  A
C2557      H2562   1.085       .  S
C2558      C2694   1.479       .  S
C2558      C3547   1.410       .  A
C2559      C2838   1.489       .  S
C2559      C3546   1.410   1_545  A
C2559      C2560   1.405       .  A
C2560      H2561   1.085       .  S
C2563      C2950   1.534       .  S
C2563      C3552   1.435   1_545  A
C2563      C2568   1.413       .  A
C2564      C2585   1.482       .  S
C2564      C3551   1.435       .  A
C2564      C2565   1.413       .  A
C2565      C2566   1.400       .  A
C2565      H2570   1.083       .  S
C2566      C2710   1.501       .  S
C2566      C3555   1.411       .  A
C2567      C2854   1.483       .  S
C2567      C3554   1.411   1_545  A
C2567      C2568   1.399       .  A
C2568      H2569   1.080       .  S
C2571      H2572   1.109       .  S
C2571      C2577   1.542       .  S
C2571      C2576   1.554       .  S
C2571      C2575   1.549       .  S
C2573      H2574   1.106       .  S
C2573      C2579   1.559       .  S
C2573      C2578   1.529       .  S
C2573      C2580   1.542       .  S
C2575      C2578   1.367       .  D
C2575      C2665   1.492       .  S
C2576      C2579   1.392       .  D
C2576      C2649   1.504       .  S
C2577      C2580   1.374       .  D
C2577      C2582   1.503       .  S
C2578      C2633   1.487       .  S
C2579      C2617   1.526       .  S
C2580      C2598   1.491       .  S
C2581      C2582   1.403       .  A
C2581      C2586   1.399       .  A
C2581      H2588   1.071       .  S
C2582      C2583   1.420       .  A
C2583      C2584   1.411       .  A
C2583      C2590   1.504       .  S
C2584      C2585   1.402       .  A
C2584      H2589   1.084       .  S
C2585      C2586   1.411       .  A
C2586      C2587   1.509       .  S
C2587      H2591   1.111       .  S
C2587      H2592   1.109       .  S
C2587      H2593   1.110       .  S
C2590      H2594   1.106       .  S
C2590      H2595   1.110       .  S
C2590      H2596   1.111       .  S
C2597      C2598   1.404       .  A
C2597      C2602   1.411       .  A
C2597      H2604   1.084       .  S
C2598      C2599   1.413       .  A
C2599      C2600   1.397       .  A
C2599      C2606   1.501       .  S
C2600      C2601   1.402       .  A
C2600      H2605   1.085       .  S
C2601      C2602   1.418       .  A
C2602      C2603   1.502       .  S
C2603      H2607   1.111       .  S
C2603      H2608   1.104       .  S
C2603      H3597   1.110       .  S
C2606      H2610   1.108       .  S
C2606      H2611   1.101       .  S
C2606      H2612   1.111       .  S
H2609      C3591   1.110       .  S
C2613      C2614   1.414       .  A
C2613      C2618   1.415       .  A
C2613      H2620   1.073       .  S
C2614      C2615   1.425       .  A
C2615      C2616   1.402       .  A
C2615      C2622   1.512       .  S
C2616      C2617   1.407       .  A
C2616      H2621   1.079       .  S
C2617      C2618   1.426       .  A
C2618      C2619   1.506       .  S
C2619      H2623   1.111       .  S
C2619      H2624   1.110       .  S
C2619      H2625   1.105       .  S
C2622      H2626   1.110       .  S
C2622      H2627   1.108       .  S
C2622      H2628   1.111       .  S
C2629      C2630   1.405       .  A
C2629      C2634   1.409       .  A
C2629      H2636   1.079       .  S
C2630      C2631   1.420       .  A
C2631      C2632   1.391       .  A
C2631      C2638   1.510       .  S
C2632      C2633   1.396       .  A
C2632      H2637   1.085       .  S
C2633      C2634   1.418       .  A
C2634      C2635   1.501       .  S
C2635      H2639   1.110       .  S
C2635      H2640   1.105       .  S
C2635      H2641   1.101       .  S
C2638      H2642   1.109       .  S
C2638      H2643   1.110       .  S
C2638      H2644   1.111       .  S
C2645      C2646   1.394       .  A
C2645      C2650   1.394       .  A
C2645      H2652   1.085       .  S
C2646      C2647   1.410       .  A
C2647      C2648   1.411       .  A
C2647      C2654   1.504       .  S
C2648      C2649   1.411       .  A
C2648      H2653   1.083       .  S
C2649      C2650   1.423       .  A
C2650      C2651   1.500       .  S
C2651      H2655   1.111       .  S
C2651      H2656   1.110       .  S
C2651      H2657   1.088       .  S
C2654      H2658   1.110       .  S
C2654      H2659   1.110       .  S
C2654      H2660   1.111       .  S
C2661      C2662   1.399       .  A
C2661      C2666   1.396       .  A
C2661      H2668   1.086       .  S
C2662      C2663   1.410       .  A
C2663      C2664   1.407       .  A
C2663      C2670   1.504       .  S
C2664      C2665   1.406       .  A
C2664      H2669   1.084       .  S
C2665      C2666   1.420       .  A
C2666      C2667   1.506       .  S
C2667      H2671   1.111       .  S
C2667      H2672   1.110       .  S
C2667      H2673   1.104       .  S
C2670      H2674   1.111       .  S
C2670      H2675   1.110       .  S
C2670      H2676   1.111       .  S
C2677      C2678   1.406       .  A
C2677      C2682   1.411       .  A
C2677      H2684   1.084       .  S
C2678      C2679   1.418       .  A
C2679      C2680   1.399       .  A
C2679      C2686   1.508       .  S
C2680      C2681   1.400       .  A
C2680      H2685   1.084       .  S
C2681      C2682   1.412       .  A
C2682      C2683   1.504       .  S
C2683      H2687   1.111       .  S
C2683      H2688   1.110       .  S
C2683      H2689   1.108       .  S
C2686      H2690   1.104       .  S
C2686      H2691   1.110       .  S
C2686      H2692   1.111       .  S
C2693      C2694   1.400       .  A
C2693      C2698   1.404       .  A
C2693      H2700   1.084       .  S
C2694      C2695   1.411       .  A
C2695      C2696   1.401       .  A
C2695      C2702   1.508       .  S
C2696      C2697   1.401       .  A
C2696      H2701   1.080       .  S
C2697      C2698   1.416       .  A
C2698      C2699   1.504       .  S
C2699      H2703   1.110       .  S
C2699      H2704   1.108       .  S
C2699      H2705   1.110       .  S
C2702      H2706   1.110       .  S
C2702      H2707   1.108       .  S
C2702      H2708   1.111       .  S
C2709      C2710   1.404       .  A
C2709      C2714   1.400       .  A
C2709      H3704   1.080       .  S
C2710      C2711   1.422       .  A
C2711      C2712   1.411       .  A
C2711      C2718   1.508       .  S
C2712      C2713   1.403       .  A
C2712      H2717   1.084       .  S
C2713      C2714   1.411       .  A
C2714      C2715   1.508       .  S
C2715      H3707   1.111       .  S
C2715      H2720   1.110       .  S
C2715      H3709   1.102       .  S
H2716      C3697   1.080       .  S
C2718      H2722   1.110       .  S
C2718      H2723   1.108       .  S
C2718      H2724   1.111       .  S
H2719      C3703   1.111       .  S
H2721      C3703   1.102       .  S
C2725      C2726   1.406       .  A
C2725      C2730   1.404       .  A
C2725      H2732   1.083       .  S
C2726      C2727   1.417       .  A
C2727      C2728   1.405       .  A
C2727      C2734   1.509       .  S
C2728      C2729   1.400       .  A
C2728      H2733   1.084       .  S
C2729      C2730   1.409       .  A
C2730      C2731   1.507       .  S
C2731      H2735   1.111       .  S
C2731      H2736   1.110       .  S
C2731      H2737   1.110       .  S
C2734      H2738   1.108       .  S
C2734      H2739   1.108       .  S
C2734      H2740   1.111       .  S
C2741      C2742   1.402       .  A
C2741      C2746   1.403       .  A
C2741      H2748   1.084       .  S
C2742      C2743   1.419       .  A
C2743      C2744   1.406       .  A
C2743      C2750   1.507       .  S
C2744      C2745   1.403       .  A
C2745      C2746   1.415       .  A
C2746      C2747   1.502       .  S
C2747      H2751   1.111       .  S
C2747      H2752   1.110       .  S
C2747      H2753   1.102       .  S
C2750      H2754   1.110       .  S
C2750      H2755   1.109       .  S
C2757      C2758   1.407       .  A
C2757      C2762   1.401       .  A
C2757      H2764   1.084       .  S
C2758      C2759   1.418       .  A
C2759      C2760   1.399       .  A
C2759      C2766   1.508       .  S
C2760      C2761   1.402       .  A
C2760      H2765   1.083   1_655  S
C2761      C2762   1.414       .  A
C2763      H2767   1.111       .  S
C2763      H2768   1.110       .  S
C2763      H2769   1.106       .  S
C2766      H2770   1.103       .  S
C2766      H2771   1.108   1_655  S
C2766      H2772   1.111   1_655  S
C2773      C2774   1.398       .  A
C2773      C2778   1.399       .  A
C2773      H2780   1.084       .  S
C2774      C2775   1.414       .  A
C2775      C2776   1.404       .  A
C2775      C2782   1.506       .  S
C2776      C2777   1.402       .  A
C2776      H2781   1.084       .  S
C2777      C2778   1.412       .  A
C2778      C2779   1.502       .  S
C2779      H2783   1.111       .  S
C2779      H2784   1.109       .  S
C2779      H2785   1.110       .  S
C2782      H2786   1.110       .  S
C2782      H2787   1.110       .  S
C2782      H2788   1.108       .  S
C2789      C2790   1.401       .  A
C2789      C2794   1.401       .  A
C2789      H2796   1.084       .  S
C2790      C2791   1.411       .  A
C2791      C2792   1.397       .  A
C2791      C2798   1.506       .  S
C2792      C2793   1.401       .  A
C2792      H2797   1.083       .  S
C2793      C2794   1.413       .  A
C2794      C2795   1.507       .  S
C2795      H2799   1.111       .  S
C2795      H2800   1.111       .  S
C2795      H2801   1.109       .  S
C2798      H2802   1.110       .  S
C2798      H2803   1.108       .  S
C2798      H2804   1.110       .  S
C2805      C2806   1.402       .  A
C2805      C2810   1.406       .  A
C2805      H2812   1.084       .  S
C2806      C2807   1.409       .  A
C2807      C2808   1.395       .  A
C2807      C2814   1.496       .  S
C2808      C2809   1.396       .  A
C2808      H2813   1.083       .  S
C2809      C2810   1.415       .  A
C2811      H2815   1.111       .  S
C2811      H2816   1.110       .  S
C2811      H2817   1.110       .  S
C2814      H2818   1.110       .  S
C2814      H2819   1.110       .  S
C2814      H2820   1.111       .  S
C2821      C2822   1.399       .  A
C2821      C2826   1.399       .  A
C2821      H2828   1.071       .  S
C2822      C2823   1.409       .  A
C2823      C2824   1.404       .  A
C2823      C2830   1.505       .  S
C2824      C2825   1.407       .  A
C2824      H2829   1.083       .  S
C2825      C2826   1.407       .  A
C2826      C2827   1.506       .  S
C2827      H2831   1.111       .  S
C2827      H2833   1.110       .  S
C2830      H2834   1.108       .  S
C2830      H2835   1.110       .  S
C2830      H2836   1.111       .  S
C2837      C2838   1.402       .  A
C2837      C2842   1.405       .  A
C2837      H2844   1.082       .  S
C2838      C2839   1.410       .  A
C2839      C2840   1.406       .  A
C2839      C2846   1.506       .  S
C2840      C2841   1.408       .  A
C2840      H2845   1.084       .  S
C2841      C2842   1.421       .  A
C2842      C2843   1.510       .  S
C2843      H2847   1.111       .  S
C2843      H2848   1.103       .  S
C2843      H2849   1.111       .  S
C2846      H2850   1.110       .  S
C2846      H2851   1.110       .  S
C2846      H2852   1.111       .  S
C2853      C2854   1.400       .  A
C2853      C2858   1.407       .  A
C2853      H2860   1.084       .  S
C2854      C2855   1.416       .  A
C2855      C2856   1.398       .  A
C2855      C2862   1.508       .  S
C2856      C2857   1.402       .  A
C2856      H2861   1.085       .  S
C2857      C2858   1.420       .  A
C2858      C2859   1.508       .  S
C2859      H2863   1.111       .  S
C2859      H2864   1.109       .  S
C2859      H2865   1.111       .  S
C2862      H2866   1.107       .  S
C2862      H2867   1.110       .  S
C2862      H2868   1.111       .  S
C2869      C2870   1.403       .  A
C2869      C2874   1.409       .  A
C2869      H2876   1.085       .  S
C2870      C2871   1.412       .  A
C2871      C2872   1.398       .  A
C2871      C2878   1.507       .  S
C2872      C2873   1.404       .  A
C2872      H2877   1.085       .  S
C2873      C2874   1.417       .  A
C2874      C2875   1.503       .  S
C2875      H2879   1.111       .  S
C2875      H2880   1.104       .  S
C2875      H2881   1.110       .  S
C2878      H2882   1.107       .  S
C2878      H2883   1.103       .  S
C2878      H2884   1.111       .  S
C2885      C2886   1.401       .  A
C2885      C2890   1.398       .  A
C2885      H2892   1.074       .  S
C2886      C2887   1.418       .  A
C2887      C2888   1.409       .  A
C2887      C2894   1.502       .  S
C2888      C2889   1.401       .  A
C2888      H2893   1.084       .  S
C2889      C2890   1.414       .  A
C2890      C2891   1.509       .  S
C2891      H2895   1.110       .  S
C2891      H2896   1.107       .  S
C2891      H2897   1.111       .  S
C2894      H2898   1.107       .  S
C2894      H2899   1.110       .  S
C2894      H2900   1.111       .  S
C2901      C2902   1.404       .  A
C2901      C2906   1.403       .  A
C2901      H2908   1.084       .  S
C2902      C2903   1.422       .  A
C2903      C2904   1.406       .  A
C2903      C2910   1.507       .  S
C2904      C2905   1.400       .  A
C2904      H2909   1.084       .  S
C2905      C2906   1.413       .  A
C2906      C2907   1.508       .  S
C2907      H2911   1.111       .  S
C2907      H2912   1.110       .  S
C2907      H2913   1.110       .  S
C2910      H2914   1.110       .  S
C2910      H2915   1.106       .  S
C2910      H2916   1.110       .  S
C2917      C2918   1.403       .  A
C2917      C2922   1.394       .  A
C2917      H2924   1.081       .  S
C2918      C2919   1.420       .  A
C2919      C2920   1.413       .  A
C2919      C2926   1.502       .  S
C2920      C2921   1.415       .  A
C2920      H2925   1.072       .  S
C2921      C2922   1.421       .  A
C2922      C2923   1.504       .  S
C2923      H2927   1.111       .  S
C2923      H2928   1.110       .  S
C2923      H2929   1.107       .  S
C2926      H2930   1.110       .  S
C2926      H2931   1.103       .  S
C2926      H2932   1.109       .  S
C2933      C2934   1.409       .  A
C2933      C2938   1.408       .  A
C2933      H2940   1.084       .  S
C2934      C2935   1.422       .  A
C2935      C2936   1.400       .  A
C2935      C2942   1.508       .  S
C2936      C2937   1.398       .  A
C2936      H2941   1.083       .  S
C2937      C2938   1.413       .  A
C2938      C2939   1.505       .  S
C2939      H2943   1.110       .  S
C2939      H2944   1.109       .  S
C2939      H3933   1.111       .  S
C2942      H2946   1.104       .  S
C2942      H2947   1.104       .  S
C2942      H2948   1.111       .  S
H2945      C3927   1.111       .  S
C2949      C2950   1.415       .  A
C2949      C2954   1.411       .  A
C2949      H2956   1.070       .  S
C2950      C2951   1.431       .  A
C2951      C2952   1.398       .  A
C2951      C2958   1.510       .  S
C2952      C2953   1.400       .  A
C2952      H2957   1.082       .  S
C2953      C2954   1.421       .  A
C2954      C2955   1.505       .  S
C2955      H2959   1.111       .  S
C2955      H2960   1.110       .  S
C2955      H2961   1.103       .  S
C2958      H2962   1.110       .  S
C2958      H2963   1.103       .  S
C2958      H2964   1.112       .  S
C2965      H2966   1.106       .  S
C2965      C2971   1.555       .  S
C2965      C2970   1.544       .  S
C2965      C2969   1.543       .  S
C2967      H2968   1.105       .  S
C2967      C2973   1.527       .  S
C2967      C2972   1.555       .  S
C2967      C2974   1.539       .  S
C2969      C2972   1.386       .  D
C2969      C3428   1.502       .  S
C2970      C2973   1.365       .  D
C2970      C3380   1.498       .  S
C2971      C2974   1.382       .  D
C2971      C3396   1.494       .  S
C2972      C3447   1.508       .  S
C2973      C3364   1.487       .  S
C2974      C3412   1.512       .  S
O2975      C2985   1.266       .  A
O2975      V3477   1.899   1_554  S
O2976      C2986   1.264       .  A
O2976      V2983   1.906       .  S
O2977      C2987   1.264       .  A
O2977      V3477   1.905   1_554  S
O2978      C2988   1.266       .  A
O2978      V2983   1.904       .  S
O2979      C2988   1.265       .  A
O2979      V2984   1.903       .  S
O2980      C2987   1.263       .  A
O2980      V3478   1.896   1_554  S
O2981      C2986   1.263       .  A
O2981      V2984   1.897       .  S
O2982      C2985   1.263       .  A
O2982      V3478   1.897   1_554  S
V2983      O3469   1.899       .  S
V2983      O3471   1.905       .  S
V2983      V2984   2.087       .  T
V2984      O3474   1.896       .  S
V2984      O3476   1.897       .  S
C2985      C3351   1.483       .  S
C2986      C3316   1.472       .  S
C2987      C3300   1.470       .  S
C2988      C3335   1.487       .  S
O2989      C2999   1.264       .  A
O2989      V2997   1.896   1_554  S
O2990      C3000   1.264       .  A
O2991      C3001   1.263       .  A
O2992      C3002   1.263       .  A
O2992      V3491   1.897       .  S
O2993      C3002   1.264       .  A
O2993      V2998   1.902   1_565  S
O2994      C3001   1.266       .  A
O2995      C3000   1.264       .  A
O2996      C2999   1.261       .  A
O2996      V3492   1.891   1_564  S
V2997      O3486   1.897       .  S
V2997      V3492   2.087   1_565  T
V2998      O3490   1.891   1_545  S
V2998      V3491   2.087   1_545  T
C2999      C3287   1.468       .  S
C3000      C3252   1.484       .  S
C3001      C3236   1.485       .  S
C3002      C3271   1.473       .  S
O3003      C3013   1.262       .  A
O3003      V3011   1.892       .  S
O3004      C3014   1.262       .  A
O3005      C3015   1.265       .  A
O3006      C3016   1.264       .  A
O3006      V3505   1.903   1_554  S
O3007      C3016   1.263       .  A
O3007      V3012   1.899       .  S
O3008      C3015   1.264       .  A
O3009      C3014   1.267       .  A
O3010      C3013   1.268       .  A
O3010      V3506   1.917       .  S
V3011      O3500   1.903       .  S
V3011      V3506   2.088       .  T
V3012      O3504   1.917   1_554  S
V3012      V3505   2.088   1_554  T
C3013      C3172   1.482       .  S
C3014      C3207   1.479       .  S
C3015      C3191   1.476       .  S
C3016      C3223   1.471       .  S
C3017      C3415   1.527       .  S
C3017      C3022   1.422       .  A
C3018      C3156   1.474       .  S
C3018      C3019   1.405       .  A
C3019      C3020   1.389       .  A
C3019      H3024   1.086       .  S
C3020      C3303   1.478       .  S
C3021      C3239   1.493       .  S
C3021      C3022   1.402       .  A
C3022      H3023   1.081       .  S
C3025      C3140   1.480       .  S
C3025      C3026   1.419       .  A
C3025      C3030   1.402       .  A
C3026      C3367   1.487       .  S
C3026      C3027   1.409       .  A
C3027      C3028   1.398       .  A
C3027      H3032   1.084       .  S
C3028      C3220   1.492       .  S
C3028      C3029   1.412       .  A
C3029      C3284   1.473       .  S
C3029      C3030   1.396       .  A
C3030      H3031   1.085       .  S
C3033      C3124   1.495       .  S
C3033      C3038   1.408       .  A
C3034      C3399   1.480       .  S
C3034      C3035   1.404       .  A
C3035      C3036   1.399       .  A
C3035      H3040   1.085       .  S
C3036      C3255   1.485       .  S
C3037      C3319   1.482       .  S
C3037      C3038   1.392       .  A
C3038      H3039   1.085       .  S
C3041      C3108   1.531       .  S
C3041      C3042   1.435       .  A
C3041      C3046   1.416       .  A
C3042      C3383   1.477       .  S
C3042      C3043   1.412       .  A
C3043      C3044   1.393       .  A
C3043      H3048   1.086       .  S
C3044      C3175   1.490       .  S
C3044      C3045   1.405       .  A
C3045      C3268   1.479       .  S
C3045      C3046   1.398       .  A
C3046      H3047   1.081       .  S
C3049      C3431   1.484       .  S
C3049      C3054   1.409       .  A
C3050      C3095   1.489       .  S
C3050      C3051   1.406       .  A
C3051      C3052   1.395       .  A
C3051      H3056   1.085       .  S
C3052      C3188   1.479       .  S
C3053      C3332   1.489       .  S
C3053      C3054   1.405       .  A
C3054      H3055   1.085       .  S
C3057      C3444   1.534       .  S
C3057      C3062   1.413       .  A
C3058      C3079   1.482       .  S
C3058      C3059   1.413       .  A
C3059      C3060   1.400       .  A
C3059      H3064   1.083       .  S
C3060      C3204   1.501       .  S
C3061      C3348   1.483       .  S
C3061      C3062   1.399       .  A
C3062      H3063   1.080       .  S
C3065      H3066   1.109       .  S
C3065      C3071   1.542       .  S
C3065      C3070   1.554       .  S
C3065      C3069   1.549       .  S
C3067      H3068   1.106       .  S
C3067      C3073   1.559       .  S
C3067      C3072   1.529       .  S
C3067      C3074   1.542       .  S
C3069      C3072   1.367       .  D
C3069      C3159   1.492       .  S
C3070      C3073   1.392       .  D
C3070      C3143   1.504       .  S
C3071      C3074   1.374       .  D
C3071      C3076   1.503       .  S
C3072      C3127   1.487       .  S
C3073      C3111   1.526       .  S
C3074      C3092   1.491       .  S
C3075      C3076   1.403       .  A
C3075      C3080   1.399       .  A
C3075      H3082   1.071       .  S
C3076      C3077   1.420       .  A
C3077      C3078   1.411       .  A
C3077      C3084   1.504       .  S
C3078      C3079   1.402       .  A
C3078      H3083   1.084       .  S
C3079      C3080   1.411       .  A
C3080      C3081   1.509       .  S
C3081      H3085   1.111       .  S
C3081      H3086   1.109       .  S
C3081      H3087   1.110       .  S
C3084      H3088   1.106       .  S
C3084      H3089   1.110       .  S
C3084      H3090   1.111       .  S
C3091      C3092   1.404       .  A
C3091      C3096   1.411       .  A
C3091      H3098   1.084       .  S
C3092      C3093   1.413       .  A
C3093      C3094   1.397       .  A
C3093      C3100   1.501       .  S
C3094      C3095   1.402       .  A
C3094      H3099   1.085       .  S
C3095      C3096   1.418       .  A
C3096      C3097   1.502       .  S
C3097      H3101   1.111       .  S
C3097      H3102   1.104       .  S
C3100      H3104   1.108       .  S
C3100      H3105   1.101       .  S
C3100      H3106   1.111       .  S
C3107      C3108   1.414       .  A
C3107      C3112   1.415       .  A
C3107      H3114   1.073       .  S
C3108      C3109   1.425       .  A
C3109      C3110   1.402       .  A
C3109      C3116   1.512       .  S
C3110      C3111   1.407       .  A
C3110      H3115   1.079       .  S
C3111      C3112   1.426       .  A
C3112      C3113   1.506       .  S
C3113      H3117   1.111       .  S
C3113      H3118   1.110       .  S
C3113      H3119   1.105       .  S
C3116      H3120   1.110       .  S
C3116      H3121   1.108       .  S
C3116      H3122   1.111       .  S
C3123      C3124   1.405       .  A
C3123      C3128   1.409       .  A
C3123      H3130   1.079       .  S
C3124      C3125   1.420       .  A
C3125      C3126   1.391       .  A
C3125      C3132   1.510       .  S
C3126      C3127   1.396       .  A
C3126      H3131   1.085       .  S
C3127      C3128   1.418       .  A
C3128      C3129   1.501       .  S
C3129      H3133   1.110       .  S
C3129      H3134   1.105       .  S
C3129      H3135   1.101       .  S
C3132      H3136   1.109       .  S
C3132      H3137   1.110       .  S
C3132      H3138   1.111       .  S
C3139      C3140   1.394       .  A
C3139      C3144   1.394       .  A
C3139      H3146   1.085       .  S
C3140      C3141   1.410       .  A
C3141      C3142   1.411       .  A
C3141      C3148   1.504       .  S
C3142      C3143   1.411       .  A
C3142      H3147   1.083       .  S
C3143      C3144   1.423       .  A
C3144      C3145   1.500       .  S
C3145      H3149   1.111       .  S
C3145      H3150   1.110       .  S
C3145      H3151   1.088       .  S
C3148      H3152   1.110       .  S
C3148      H3153   1.110       .  S
C3148      H3154   1.111       .  S
C3155      C3156   1.399       .  A
C3155      C3160   1.396       .  A
C3155      H3162   1.086       .  S
C3156      C3157   1.410       .  A
C3157      C3158   1.407       .  A
C3157      C3164   1.504       .  S
C3158      C3159   1.406       .  A
C3158      H3163   1.084       .  S
C3159      C3160   1.420       .  A
C3160      C3161   1.506       .  S
C3161      H3165   1.111       .  S
C3161      H3166   1.110       .  S
C3161      H3167   1.104       .  S
C3164      H3168   1.111       .  S
C3164      H3169   1.110       .  S
C3164      H3170   1.111       .  S
C3171      C3172   1.406       .  A
C3171      C3176   1.411       .  A
C3171      H3178   1.084       .  S
C3172      C3173   1.418       .  A
C3173      C3174   1.399       .  A
C3173      C3180   1.508       .  S
C3174      C3175   1.400       .  A
C3174      H3179   1.084       .  S
C3175      C3176   1.412       .  A
C3176      C3177   1.504       .  S
C3177      H3181   1.111       .  S
C3177      H3182   1.110       .  S
C3177      H3183   1.108       .  S
C3180      H3184   1.104       .  S
C3180      H3185   1.110       .  S
C3180      H3186   1.111       .  S
C3187      C3188   1.400       .  A
C3187      C3192   1.404       .  A
C3187      H3194   1.084       .  S
C3188      C3189   1.411       .  A
C3189      C3190   1.401       .  A
C3189      C3196   1.508       .  S
C3190      C3191   1.401       .  A
C3190      H3195   1.080       .  S
C3191      C3192   1.416       .  A
C3192      C3193   1.504       .  S
C3193      H3197   1.110       .  S
C3193      H3198   1.108       .  S
C3193      H3199   1.110       .  S
C3196      H3200   1.110       .  S
C3196      H3201   1.108       .  S
C3196      H3202   1.111       .  S
C3203      C3204   1.404       .  A
C3203      C3208   1.400       .  A
C3204      C3205   1.422       .  A
C3205      C3206   1.411       .  A
C3205      C3212   1.508       .  S
C3206      C3207   1.403       .  A
C3206      H3211   1.084       .  S
C3207      C3208   1.411       .  A
C3208      C3209   1.508       .  S
C3209      H3214   1.110       .  S
C3212      H3216   1.110       .  S
C3212      H3217   1.108       .  S
C3212      H3218   1.111       .  S
C3219      C3220   1.406       .  A
C3219      C3224   1.404       .  A
C3219      H3226   1.083       .  S
C3220      C3221   1.417       .  A
C3221      C3222   1.405       .  A
C3221      C3228   1.509       .  S
C3222      C3223   1.400       .  A
C3222      H3227   1.084       .  S
C3223      C3224   1.409       .  A
C3224      C3225   1.507       .  S
C3225      H3229   1.111       .  S
C3225      H3230   1.110       .  S
C3225      H3231   1.110       .  S
C3228      H3232   1.108       .  S
C3228      H3233   1.108       .  S
C3228      H3234   1.111       .  S
C3235      C3236   1.402       .  A
C3235      C3240   1.403       .  A
C3235      H3242   1.084       .  S
C3236      C3237   1.419       .  A
C3237      C3238   1.406       .  A
C3237      C3244   1.507       .  S
C3238      C3239   1.403       .  A
C3239      C3240   1.415       .  A
C3240      C3241   1.502       .  S
C3241      H3245   1.111       .  S
C3241      H3246   1.110       .  S
C3241      H3247   1.102       .  S
C3244      H3248   1.110       .  S
C3244      H3249   1.109       .  S
C3251      C3252   1.407       .  A
C3251      C3256   1.401       .  A
C3251      H3258   1.084       .  S
C3252      C3253   1.418       .  A
C3253      C3254   1.399       .  A
C3253      C3260   1.508       .  S
C3254      C3255   1.402       .  A
C3254      H3259   1.083   1_655  S
C3255      C3256   1.414       .  A
C3257      H3261   1.111       .  S
C3257      H3262   1.110       .  S
C3257      H3263   1.106       .  S
C3260      H3264   1.103       .  S
C3260      H3265   1.108   1_655  S
C3260      H3266   1.111   1_655  S
C3267      C3268   1.398       .  A
C3267      C3272   1.399       .  A
C3267      H3274   1.084       .  S
C3268      C3269   1.414       .  A
C3269      C3270   1.404       .  A
C3269      C3276   1.506       .  S
C3270      C3271   1.402       .  A
C3270      H3275   1.084       .  S
C3271      C3272   1.412       .  A
C3272      C3273   1.502       .  S
C3273      H3277   1.111       .  S
C3273      H3278   1.109       .  S
C3273      H3279   1.110       .  S
C3276      H3280   1.110       .  S
C3276      H3281   1.110       .  S
C3276      H3282   1.108       .  S
C3283      C3284   1.401       .  A
C3283      C3288   1.401       .  A
C3283      H3290   1.084       .  S
C3284      C3285   1.411       .  A
C3285      C3286   1.397       .  A
C3285      C3292   1.506       .  S
C3286      C3287   1.401       .  A
C3286      H3291   1.083       .  S
C3287      C3288   1.413       .  A
C3288      C3289   1.507       .  S
C3289      H3293   1.111       .  S
C3289      H3294   1.111       .  S
C3289      H3295   1.109       .  S
C3292      H3296   1.110       .  S
C3292      H3297   1.108       .  S
C3292      H3298   1.110       .  S
C3299      C3300   1.402       .  A
C3299      C3304   1.406       .  A
C3299      H3306   1.084       .  S
C3300      C3301   1.409       .  A
C3301      C3302   1.395       .  A
C3301      C3308   1.496       .  S
C3302      C3303   1.396       .  A
C3302      H3307   1.083       .  S
C3303      C3304   1.415       .  A
C3305      H3309   1.111       .  S
C3305      H3310   1.110       .  S
C3305      H3311   1.110       .  S
C3308      H3312   1.110       .  S
C3308      H3313   1.110       .  S
C3308      H3314   1.111       .  S
C3315      C3316   1.399       .  A
C3315      C3320   1.399       .  A
C3315      H3322   1.071       .  S
C3316      C3317   1.409       .  A
C3317      C3318   1.404       .  A
C3317      C3324   1.505       .  S
C3318      C3319   1.407       .  A
C3318      H3323   1.083       .  S
C3319      C3320   1.407       .  A
C3320      C3321   1.506       .  S
C3321      H3325   1.111       .  S
C3321      H3327   1.110       .  S
C3324      H3328   1.108       .  S
C3324      H3329   1.110       .  S
C3324      H3330   1.111       .  S
C3331      C3332   1.402       .  A
C3331      C3336   1.405       .  A
C3331      H3338   1.082       .  S
C3332      C3333   1.410       .  A
C3333      C3334   1.406       .  A
C3333      C3340   1.506       .  S
C3334      C3335   1.408       .  A
C3334      H3339   1.084       .  S
C3335      C3336   1.421       .  A
C3336      C3337   1.510       .  S
C3337      H3341   1.111       .  S
C3337      H3342   1.103       .  S
C3337      H3343   1.111       .  S
C3340      H3344   1.110       .  S
C3340      H3345   1.110       .  S
C3340      H3346   1.111       .  S
C3347      C3348   1.400       .  A
C3347      C3352   1.407       .  A
C3347      H3354   1.084       .  S
C3348      C3349   1.416       .  A
C3349      C3350   1.398       .  A
C3349      C3356   1.508       .  S
C3350      C3351   1.402       .  A
C3350      H3355   1.085       .  S
C3351      C3352   1.420       .  A
C3352      C3353   1.508       .  S
C3353      H3357   1.111       .  S
C3353      H3358   1.109       .  S
C3353      H3359   1.111       .  S
C3356      H3360   1.107       .  S
C3356      H3361   1.110       .  S
C3356      H3362   1.111       .  S
C3363      C3364   1.403       .  A
C3363      C3368   1.409       .  A
C3363      H3370   1.085       .  S
C3364      C3365   1.412       .  A
C3365      C3366   1.398       .  A
C3365      C3372   1.507       .  S
C3366      C3367   1.404       .  A
C3366      H3371   1.085       .  S
C3367      C3368   1.417       .  A
C3368      C3369   1.503       .  S
C3369      H3373   1.111       .  S
C3369      H3374   1.104       .  S
C3369      H3375   1.110       .  S
C3372      H3376   1.107       .  S
C3372      H3377   1.103       .  S
C3372      H3378   1.111       .  S
C3379      C3380   1.401       .  A
C3379      C3384   1.398       .  A
C3379      H3386   1.074       .  S
C3380      C3381   1.418       .  A
C3381      C3382   1.409       .  A
C3381      C3388   1.502       .  S
C3382      C3383   1.401       .  A
C3382      H3387   1.084       .  S
C3383      C3384   1.414       .  A
C3384      C3385   1.509       .  S
C3385      H3389   1.110       .  S
C3385      H3390   1.107       .  S
C3385      H3391   1.111       .  S
C3388      H3392   1.107       .  S
C3388      H3393   1.110       .  S
C3388      H3394   1.111       .  S
C3395      C3396   1.404       .  A
C3395      C3400   1.403       .  A
C3395      H3402   1.084       .  S
C3396      C3397   1.422       .  A
C3397      C3398   1.406       .  A
C3397      C3404   1.507       .  S
C3398      C3399   1.400       .  A
C3398      H3403   1.084       .  S
C3399      C3400   1.413       .  A
C3400      C3401   1.508       .  S
C3401      H3405   1.111       .  S
C3401      H3406   1.110       .  S
C3401      H3407   1.110       .  S
C3404      H3408   1.110       .  S
C3404      H3409   1.106       .  S
C3404      H3410   1.110       .  S
C3411      C3412   1.403       .  A
C3411      C3416   1.394       .  A
C3411      H3418   1.081       .  S
C3412      C3413   1.420       .  A
C3413      C3414   1.413       .  A
C3413      C3420   1.502       .  S
C3414      C3415   1.415       .  A
C3414      H3419   1.072       .  S
C3415      C3416   1.421       .  A
C3416      C3417   1.504       .  S
C3417      H3421   1.111       .  S
C3417      H3422   1.110       .  S
C3417      H3423   1.107       .  S
C3420      H3424   1.110       .  S
C3420      H3425   1.103       .  S
C3420      H3426   1.109       .  S
C3427      C3428   1.409       .  A
C3427      C3432   1.408       .  A
C3427      H3434   1.084       .  S
C3428      C3429   1.422       .  A
C3429      C3430   1.400       .  A
C3429      C3436   1.508       .  S
C3430      C3431   1.398       .  A
C3430      H3435   1.083       .  S
C3431      C3432   1.413       .  A
C3432      C3433   1.505       .  S
C3433      H3437   1.110       .  S
C3433      H3438   1.109       .  S
C3436      H3440   1.104       .  S
C3436      H3441   1.104       .  S
C3436      H3442   1.111       .  S
C3443      C3444   1.415       .  A
C3443      C3448   1.411       .  A
C3443      H3450   1.070       .  S
C3444      C3445   1.431       .  A
C3445      C3446   1.398       .  A
C3445      C3452   1.510       .  S
C3446      C3447   1.400       .  A
C3446      H3451   1.082       .  S
C3447      C3448   1.421       .  A
C3448      C3449   1.505       .  S
C3449      H3453   1.111       .  S
C3449      H3454   1.110       .  S
C3449      H3455   1.103       .  S
C3452      H3456   1.110       .  S
C3452      H3457   1.103       .  S
C3452      H3458   1.112       .  S
C3459      H3460   1.106       .  S
C3459      C3465   1.555       .  S
C3459      C3464   1.544       .  S
C3459      C3463   1.543       .  S
C3461      H3462   1.105       .  S
C3461      C3467   1.527       .  S
C3461      C3466   1.555       .  S
C3461      C3468   1.539       .  S
C3463      C3466   1.386       .  D
C3463      C3922   1.502       .  S
C3464      C3467   1.365       .  D
C3464      C3874   1.498       .  S
C3465      C3468   1.382       .  D
C3465      C3890   1.494       .  S
C3466      C3941   1.508       .  S
C3467      C3858   1.487       .  S
C3468      C3906   1.512       .  S
O3469      C3479   1.266       .  A
O3470      C3480   1.264       .  A
O3470      V3477   1.906       .  S
O3471      C3481   1.264       .  A
O3472      C3482   1.266       .  A
O3472      V3477   1.904       .  S
O3473      C3482   1.265       .  A
O3473      V3478   1.903       .  S
O3474      C3481   1.263       .  A
O3475      C3480   1.263       .  A
O3475      V3478   1.897       .  S
O3476      C3479   1.263       .  A
V3477      V3478   2.087       .  T
C3479      C3845   1.483       .  S
C3480      C3810   1.472       .  S
C3481      C3794   1.470       .  S
C3482      C3829   1.487       .  S
O3483      C3493   1.264       .  A
O3483      V3491   1.896       .  S
O3484      C3494   1.264       .  A
O3485      C3495   1.263       .  A
O3486      C3496   1.263       .  A
O3487      C3496   1.264       .  A
O3487      V3492   1.902   1_565  S
O3488      C3495   1.266       .  A
O3489      C3494   1.264       .  A
O3490      C3493   1.261       .  A
C3493      C3781   1.468       .  S
C3494      C3746   1.484       .  S
C3495      C3730   1.485       .  S
C3496      C3765   1.473       .  S
O3497      C3507   1.262       .  A
O3497      V3505   1.892       .  S
O3498      C3508   1.262       .  A
O3499      C3509   1.265       .  A
O3500      C3510   1.264       .  A
O3501      C3510   1.263       .  A
O3501      V3506   1.899       .  S
O3502      C3509   1.264       .  A
O3503      C3508   1.267       .  A
O3504      C3507   1.268       .  A
C3507      C3666   1.482       .  S
C3508      C3701   1.479       .  S
C3509      C3685   1.476       .  S
C3510      C3717   1.471       .  S
C3511      C3909   1.527       .  S
C3511      C3516   1.422       .  A
C3512      C3650   1.474       .  S
C3512      C3513   1.405       .  A
C3513      C3514   1.389       .  A
C3513      H3518   1.086       .  S
C3514      C3797   1.478       .  S
C3515      C3733   1.493       .  S
C3515      C3516   1.402       .  A
C3516      H3517   1.081       .  S
C3519      C3634   1.480       .  S
C3519      C3520   1.419       .  A
C3519      C3524   1.402       .  A
C3520      C3861   1.487       .  S
C3520      C3521   1.409       .  A
C3521      C3522   1.398       .  A
C3521      H3526   1.084       .  S
C3522      C3714   1.492       .  S
C3522      C3523   1.412       .  A
C3523      C3778   1.473       .  S
C3523      C3524   1.396       .  A
C3524      H3525   1.085       .  S
C3527      C3618   1.495       .  S
C3527      C3532   1.408       .  A
C3528      C3893   1.480       .  S
C3528      C3529   1.404       .  A
C3529      C3530   1.399       .  A
C3529      H3534   1.085       .  S
C3530      C3749   1.485       .  S
C3531      C3813   1.482       .  S
C3531      C3532   1.392       .  A
C3532      H3533   1.085       .  S
C3535      C3602   1.531       .  S
C3535      C3536   1.435       .  A
C3535      C3540   1.416       .  A
C3536      C3877   1.477       .  S
C3536      C3537   1.412       .  A
C3537      C3538   1.393       .  A
C3537      H3542   1.086       .  S
C3538      C3669   1.490       .  S
C3538      C3539   1.405       .  A
C3539      C3762   1.479       .  S
C3539      C3540   1.398       .  A
C3540      H3541   1.081       .  S
C3543      C3925   1.484       .  S
C3543      C3548   1.409       .  A
C3544      C3589   1.489       .  S
C3544      C3545   1.406       .  A
C3545      C3546   1.395       .  A
C3545      H3550   1.085       .  S
C3546      C3682   1.479       .  S
C3547      C3826   1.489       .  S
C3547      C3548   1.405       .  A
C3548      H3549   1.085       .  S
C3551      C3938   1.534       .  S
C3551      C3556   1.413       .  A
C3552      C3573   1.482       .  S
C3552      C3553   1.413       .  A
C3553      C3554   1.400       .  A
C3553      H3558   1.083       .  S
C3554      C3698   1.501       .  S
C3555      C3842   1.483       .  S
C3555      C3556   1.399       .  A
C3556      H3557   1.080       .  S
C3559      H3560   1.109       .  S
C3559      C3565   1.542       .  S
C3559      C3564   1.554       .  S
C3559      C3563   1.549       .  S
C3561      H3562   1.106       .  S
C3561      C3567   1.559       .  S
C3561      C3566   1.529       .  S
C3561      C3568   1.542       .  S
C3563      C3566   1.367       .  D
C3563      C3653   1.492       .  S
C3564      C3567   1.392       .  D
C3564      C3637   1.504       .  S
C3565      C3568   1.374       .  D
C3565      C3570   1.503       .  S
C3566      C3621   1.487       .  S
C3567      C3605   1.526       .  S
C3568      C3586   1.491       .  S
C3569      C3570   1.403       .  A
C3569      C3574   1.399       .  A
C3569      H3576   1.071       .  S
C3570      C3571   1.420       .  A
C3571      C3572   1.411       .  A
C3571      C3578   1.504       .  S
C3572      C3573   1.402       .  A
C3572      H3577   1.084       .  S
C3573      C3574   1.411       .  A
C3574      C3575   1.509       .  S
C3575      H3579   1.111       .  S
C3575      H3580   1.109       .  S
C3575      H3581   1.110       .  S
C3578      H3582   1.106       .  S
C3578      H3583   1.110       .  S
C3578      H3584   1.111       .  S
C3585      C3586   1.404       .  A
C3585      C3590   1.411       .  A
C3585      H3592   1.084       .  S
C3586      C3587   1.413       .  A
C3587      C3588   1.397       .  A
C3587      C3594   1.501       .  S
C3588      C3589   1.402       .  A
C3588      H3593   1.085       .  S
C3589      C3590   1.418       .  A
C3590      C3591   1.502       .  S
C3591      H3595   1.111       .  S
C3591      H3596   1.104       .  S
C3594      H3598   1.108       .  S
C3594      H3599   1.101       .  S
C3594      H3600   1.111       .  S
C3601      C3602   1.414       .  A
C3601      C3606   1.415       .  A
C3601      H3608   1.073       .  S
C3602      C3603   1.425       .  A
C3603      C3604   1.402       .  A
C3603      C3610   1.512       .  S
C3604      C3605   1.407       .  A
C3604      H3609   1.079       .  S
C3605      C3606   1.426       .  A
C3606      C3607   1.506       .  S
C3607      H3611   1.111       .  S
C3607      H3612   1.110       .  S
C3607      H3613   1.105       .  S
C3610      H3614   1.110       .  S
C3610      H3615   1.108       .  S
C3610      H3616   1.111       .  S
C3617      C3618   1.405       .  A
C3617      C3622   1.409       .  A
C3617      H3624   1.079       .  S
C3618      C3619   1.420       .  A
C3619      C3620   1.391       .  A
C3619      C3626   1.510       .  S
C3620      C3621   1.396       .  A
C3620      H3625   1.085       .  S
C3621      C3622   1.418       .  A
C3622      C3623   1.501       .  S
C3623      H3627   1.110       .  S
C3623      H3628   1.105       .  S
C3623      H3629   1.101       .  S
C3626      H3630   1.109       .  S
C3626      H3631   1.110       .  S
C3626      H3632   1.111       .  S
C3633      C3634   1.394       .  A
C3633      C3638   1.394       .  A
C3633      H3640   1.085       .  S
C3634      C3635   1.410       .  A
C3635      C3636   1.411       .  A
C3635      C3642   1.504       .  S
C3636      C3637   1.411       .  A
C3636      H3641   1.083       .  S
C3637      C3638   1.423       .  A
C3638      C3639   1.500       .  S
C3639      H3643   1.111       .  S
C3639      H3644   1.110       .  S
C3639      H3645   1.088       .  S
C3642      H3646   1.110       .  S
C3642      H3647   1.110       .  S
C3642      H3648   1.111       .  S
C3649      C3650   1.399       .  A
C3649      C3654   1.396       .  A
C3649      H3656   1.086       .  S
C3650      C3651   1.410       .  A
C3651      C3652   1.407       .  A
C3651      C3658   1.504       .  S
C3652      C3653   1.406       .  A
C3652      H3657   1.084       .  S
C3653      C3654   1.420       .  A
C3654      C3655   1.506       .  S
C3655      H3659   1.111       .  S
C3655      H3660   1.110       .  S
C3655      H3661   1.104       .  S
C3658      H3662   1.111       .  S
C3658      H3663   1.110       .  S
C3658      H3664   1.111       .  S
C3665      C3666   1.406       .  A
C3665      C3670   1.411       .  A
C3665      H3672   1.084       .  S
C3666      C3667   1.418       .  A
C3667      C3668   1.399       .  A
C3667      C3674   1.508       .  S
C3668      C3669   1.400       .  A
C3668      H3673   1.084       .  S
C3669      C3670   1.412       .  A
C3670      C3671   1.504       .  S
C3671      H3675   1.111       .  S
C3671      H3676   1.110       .  S
C3671      H3677   1.108       .  S
C3674      H3678   1.104       .  S
C3674      H3679   1.110       .  S
C3674      H3680   1.111       .  S
C3681      C3682   1.400       .  A
C3681      C3686   1.404       .  A
C3681      H3688   1.084       .  S
C3682      C3683   1.411       .  A
C3683      C3684   1.401       .  A
C3683      C3690   1.508       .  S
C3684      C3685   1.401       .  A
C3684      H3689   1.080       .  S
C3685      C3686   1.416       .  A
C3686      C3687   1.504       .  S
C3687      H3691   1.110       .  S
C3687      H3692   1.108       .  S
C3687      H3693   1.110       .  S
C3690      H3694   1.110       .  S
C3690      H3695   1.108       .  S
C3690      H3696   1.111       .  S
C3697      C3698   1.404       .  A
C3697      C3702   1.400       .  A
C3698      C3699   1.422       .  A
C3699      C3700   1.411       .  A
C3699      C3706   1.508       .  S
C3700      C3701   1.403       .  A
C3700      H3705   1.084       .  S
C3701      C3702   1.411       .  A
C3702      C3703   1.508       .  S
C3703      H3708   1.110       .  S
C3706      H3710   1.110       .  S
C3706      H3711   1.108       .  S
C3706      H3712   1.111       .  S
C3713      C3714   1.406       .  A
C3713      C3718   1.404       .  A
C3713      H3720   1.083       .  S
C3714      C3715   1.417       .  A
C3715      C3716   1.405       .  A
C3715      C3722   1.509       .  S
C3716      C3717   1.400       .  A
C3716      H3721   1.084       .  S
C3717      C3718   1.409       .  A
C3718      C3719   1.507       .  S
C3719      H3723   1.111       .  S
C3719      H3724   1.110       .  S
C3719      H3725   1.110       .  S
C3722      H3726   1.108       .  S
C3722      H3727   1.108       .  S
C3722      H3728   1.111       .  S
C3729      C3730   1.402       .  A
C3729      C3734   1.403       .  A
C3729      H3736   1.084       .  S
C3730      C3731   1.419       .  A
C3731      C3732   1.406       .  A
C3731      C3738   1.507       .  S
C3732      C3733   1.403       .  A
C3733      C3734   1.415       .  A
C3734      C3735   1.502       .  S
C3735      H3739   1.111       .  S
C3735      H3740   1.110       .  S
C3735      H3741   1.102       .  S
C3738      H3742   1.110       .  S
C3738      H3743   1.109       .  S
C3745      C3746   1.407       .  A
C3745      C3750   1.401       .  A
C3745      H3752   1.084       .  S
C3746      C3747   1.418       .  A
C3747      C3748   1.399       .  A
C3747      C3754   1.508       .  S
C3748      C3749   1.402       .  A
C3748      H3753   1.083   1_655  S
C3749      C3750   1.414       .  A
C3751      H3755   1.111       .  S
C3751      H3756   1.110       .  S
C3751      H3757   1.106       .  S
C3754      H3758   1.103       .  S
C3754      H3759   1.108   1_655  S
C3754      H3760   1.111   1_655  S
C3761      C3762   1.398       .  A
C3761      C3766   1.399       .  A
C3761      H3768   1.084       .  S
C3762      C3763   1.414       .  A
C3763      C3764   1.404       .  A
C3763      C3770   1.506       .  S
C3764      C3765   1.402       .  A
C3764      H3769   1.084       .  S
C3765      C3766   1.412       .  A
C3766      C3767   1.502       .  S
C3767      H3771   1.111       .  S
C3767      H3772   1.109       .  S
C3767      H3773   1.110       .  S
C3770      H3774   1.110       .  S
C3770      H3775   1.110       .  S
C3770      H3776   1.108       .  S
C3777      C3778   1.401       .  A
C3777      C3782   1.401       .  A
C3777      H3784   1.084       .  S
C3778      C3779   1.411       .  A
C3779      C3780   1.397       .  A
C3779      C3786   1.506       .  S
C3780      C3781   1.401       .  A
C3780      H3785   1.083       .  S
C3781      C3782   1.413       .  A
C3782      C3783   1.507       .  S
C3783      H3787   1.111       .  S
C3783      H3788   1.111       .  S
C3783      H3789   1.109       .  S
C3786      H3790   1.110       .  S
C3786      H3791   1.108       .  S
C3786      H3792   1.110       .  S
C3793      C3794   1.402       .  A
C3793      C3798   1.406       .  A
C3793      H3800   1.084       .  S
C3794      C3795   1.409       .  A
C3795      C3796   1.395       .  A
C3795      C3802   1.496       .  S
C3796      C3797   1.396       .  A
C3796      H3801   1.083       .  S
C3797      C3798   1.415       .  A
C3799      H3803   1.111       .  S
C3799      H3804   1.110       .  S
C3799      H3805   1.110       .  S
C3802      H3806   1.110       .  S
C3802      H3807   1.110       .  S
C3802      H3808   1.111       .  S
C3809      C3810   1.399       .  A
C3809      C3814   1.399       .  A
C3809      H3816   1.071       .  S
C3810      C3811   1.409       .  A
C3811      C3812   1.404       .  A
C3811      C3818   1.505       .  S
C3812      C3813   1.407       .  A
C3812      H3817   1.083       .  S
C3813      C3814   1.407       .  A
C3814      C3815   1.506       .  S
C3815      H3819   1.111       .  S
C3815      H3821   1.110       .  S
C3818      H3822   1.108       .  S
C3818      H3823   1.110       .  S
C3818      H3824   1.111       .  S
C3825      C3826   1.402       .  A
C3825      C3830   1.405       .  A
C3825      H3832   1.082       .  S
C3826      C3827   1.410       .  A
C3827      C3828   1.406       .  A
C3827      C3834   1.506       .  S
C3828      C3829   1.408       .  A
C3828      H3833   1.084       .  S
C3829      C3830   1.421       .  A
C3830      C3831   1.510       .  S
C3831      H3835   1.111       .  S
C3831      H3836   1.103       .  S
C3831      H3837   1.111       .  S
C3834      H3838   1.110       .  S
C3834      H3839   1.110       .  S
C3834      H3840   1.111       .  S
C3841      C3842   1.400       .  A
C3841      C3846   1.407       .  A
C3841      H3848   1.084       .  S
C3842      C3843   1.416       .  A
C3843      C3844   1.398       .  A
C3843      C3850   1.508       .  S
C3844      C3845   1.402       .  A
C3844      H3849   1.085       .  S
C3845      C3846   1.420       .  A
C3846      C3847   1.508       .  S
C3847      H3851   1.111       .  S
C3847      H3852   1.109       .  S
C3847      H3853   1.111       .  S
C3850      H3854   1.107       .  S
C3850      H3855   1.110       .  S
C3850      H3856   1.111       .  S
C3857      C3858   1.403       .  A
C3857      C3862   1.409       .  A
C3857      H3864   1.085       .  S
C3858      C3859   1.412       .  A
C3859      C3860   1.398       .  A
C3859      C3866   1.507       .  S
C3860      C3861   1.404       .  A
C3860      H3865   1.085       .  S
C3861      C3862   1.417       .  A
C3862      C3863   1.503       .  S
C3863      H3867   1.111       .  S
C3863      H3868   1.104       .  S
C3863      H3869   1.110       .  S
C3866      H3870   1.107       .  S
C3866      H3871   1.103       .  S
C3866      H3872   1.111       .  S
C3873      C3874   1.401       .  A
C3873      C3878   1.398       .  A
C3873      H3880   1.074       .  S
C3874      C3875   1.418       .  A
C3875      C3876   1.409       .  A
C3875      C3882   1.502       .  S
C3876      C3877   1.401       .  A
C3876      H3881   1.084       .  S
C3877      C3878   1.414       .  A
C3878      C3879   1.509       .  S
C3879      H3883   1.110       .  S
C3879      H3884   1.107       .  S
C3879      H3885   1.111       .  S
C3882      H3886   1.107       .  S
C3882      H3887   1.110       .  S
C3882      H3888   1.111       .  S
C3889      C3890   1.404       .  A
C3889      C3894   1.403       .  A
C3889      H3896   1.084       .  S
C3890      C3891   1.422       .  A
C3891      C3892   1.406       .  A
C3891      C3898   1.507       .  S
C3892      C3893   1.400       .  A
C3892      H3897   1.084       .  S
C3893      C3894   1.413       .  A
C3894      C3895   1.508       .  S
C3895      H3899   1.111       .  S
C3895      H3900   1.110       .  S
C3895      H3901   1.110       .  S
C3898      H3902   1.110       .  S
C3898      H3903   1.106       .  S
C3898      H3904   1.110       .  S
C3905      C3906   1.403       .  A
C3905      C3910   1.394       .  A
C3905      H3912   1.081       .  S
C3906      C3907   1.420       .  A
C3907      C3908   1.413       .  A
C3907      C3914   1.502       .  S
C3908      C3909   1.415       .  A
C3908      H3913   1.072       .  S
C3909      C3910   1.421       .  A
C3910      C3911   1.504       .  S
C3911      H3915   1.111       .  S
C3911      H3916   1.110       .  S
C3911      H3917   1.107       .  S
C3914      H3918   1.110       .  S
C3914      H3919   1.103       .  S
C3914      H3920   1.109       .  S
C3921      C3922   1.409       .  A
C3921      C3926   1.408       .  A
C3921      H3928   1.084       .  S
C3922      C3923   1.422       .  A
C3923      C3924   1.400       .  A
C3923      C3930   1.508       .  S
C3924      C3925   1.398       .  A
C3924      H3929   1.083       .  S
C3925      C3926   1.413       .  A
C3926      C3927   1.505       .  S
C3927      H3931   1.110       .  S
C3927      H3932   1.109       .  S
C3930      H3934   1.104       .  S
C3930      H3935   1.104       .  S
C3930      H3936   1.111       .  S
C3937      C3938   1.415       .  A
C3937      C3942   1.411       .  A
C3937      H3944   1.070       .  S
C3938      C3939   1.431       .  A
C3939      C3940   1.398       .  A
C3939      C3946   1.510       .  S
C3940      C3941   1.400       .  A
C3940      H3945   1.082       .  S
C3941      C3942   1.421       .  A
C3942      C3943   1.505       .  S
C3943      H3947   1.111       .  S
C3943      H3948   1.110       .  S
C3943      H3949   1.103       .  S
C3946      H3950   1.110       .  S
C3946      H3951   1.103       .  S
C3946      H3952   1.112       .  S
