geometry optimzed in LAMMPS
_audit_creation_date              2020-11-30 
_audit_creation_method            'lammps2cif' 
_symmetry_space_group_name_H-M    'P1' 
_symmetry_Int_Tables_number       1 
_symmetry_cell_setting            triclinic 
loop_ 
_symmetry_equiv_pos_as_xyz 
  x,y,z 
_cell_length_a                    37.90007032772473 
_cell_length_b                    37.89834854346724 
_cell_length_c                    36.93727164480078 
_cell_angle_alpha                 89.90432914361766 
_cell_angle_beta                  90.34961967081368 
_cell_angle_gamma                 119.98497708998663 
loop_ 
_atom_site_label 
_atom_site_type_symbol 
_atom_site_fract_x 
_atom_site_fract_y 
_atom_site_fract_z 
_atom_site_charge 
N1          N  0.33525124  0.33448442  0.07674535    -0.26440
N2          N  0.36480395  0.36445130  0.05823452    -0.34300
C3          C  0.39213884  0.39191650  0.08138783     0.01900
C4          C  0.37915120  0.37857877  0.11607180     0.07930
C5          C  0.34301963  0.34210639  0.11240520    -0.05170
H6          H  0.41941940  0.41953235  0.07348493     0.08590
H7          H  0.32385547  0.32263559  0.13388181     0.09790
Cu8        Cu  0.36691181  0.36691469  0.00242024     0.44170
Cu9        Cu  0.28638901  0.28537294  0.05146989     0.41990
Cu10       Cu  0.28642687  0.28601485  0.45135617     0.43880
N11         N  0.36514658  0.36522053  0.44656826    -0.33830
N12         N  0.33571557  0.33561786  0.42736674    -0.28080
C13         C  0.34390703  0.34382151  0.39189616    -0.04180
C14         C  0.38016287  0.38026589  0.38907489     0.08040
C15         C  0.39279746  0.39299628  0.42405792     0.01830
H16         H  0.32496359  0.32473068  0.36996578     0.09480
H17         H  0.42007724  0.42039080  0.43260406     0.08560
N18         N  0.24148801  0.24080038  0.48313379    -0.35270
N19         N  0.24157805  0.24062364  0.01893821    -0.27460
C20         C  0.20810548  0.20705584  0.03057931    -0.02690
C21         C  0.18564503  0.18482479  0.50074972     0.05920
C22         C  0.20790768  0.20732061  0.47112992     0.04010
H23         H  0.20076471  0.19978665  0.05883538     0.09110
H24         H  0.20059246  0.20001741  0.44280513     0.07950
N25         N  0.65702735  0.65399590  0.07725438    -0.26440
N26         N  0.62626287  0.62597670  0.05797739    -0.34300
C27         C  0.59776310  0.59899295  0.08041063     0.01900
C28         C  0.61121376  0.61058272  0.11542147     0.07930
C29         C  0.64884561  0.64551518  0.11269368    -0.05170
H30         H  0.56942507  0.57282392  0.07178807     0.08590
H31         H  0.66876120  0.66336883  0.13467594     0.09790
Cu32       Cu  0.62395627  0.62491677  0.00212371     0.44170
Cu33       Cu  0.70802086  0.70214620  0.05353794     0.41990
Cu34       Cu  0.70681095  0.70376776  0.45343066     0.43880
N35         N  0.62632700  0.62708744  0.44631408    -0.33830
N36         N  0.65690235  0.65603675  0.42788025    -0.28080
C37         C  0.64932819  0.64835196  0.39220182    -0.04180
C38         C  0.61222632  0.61290173  0.38844953     0.08040
C39         C  0.59849799  0.60022840  0.42310345     0.01830
H40         H  0.66933154  0.66701411  0.37077719     0.09480
H41         H  0.57046896  0.57336695  0.43094788     0.08560
N42         N  0.75219874  0.74798579  0.48591248    -0.35270
N43         N  0.75303562  0.74740609  0.02173532    -0.27460
C44         C  0.78656802  0.78113048  0.03355673    -0.02690
C45         C  0.80776731  0.80420768  0.00380376     0.05920
C46         C  0.78498800  0.78206892  0.47410663     0.04010
H47         H  0.79431663  0.78860700  0.06181247     0.09110
H48         H  0.79159577  0.78994298  0.44583986     0.07950
O49         O  0.44069294  0.47439479  0.21403046    -0.72090
O50         O  0.51645865  0.55067520  0.29014893    -0.73070
O51         O  0.51551445  0.54944512  0.21324333    -0.61690
O52         O  0.44160784  0.47557803  0.29090975    -0.70100
O53         O  0.47563150  0.44187110  0.29136714    -0.69660
O54         O  0.54951625  0.51571642  0.21372795    -0.60910
O55         O  0.55047145  0.51695802  0.29061113    -0.73420
O56         O  0.47471068  0.44068024  0.21449372    -0.72200
Cu57       Cu  0.47736808  0.51371288  0.25207245     1.04560
Cu58       Cu  0.51378170  0.47762108  0.25257151     1.04330
C59         C  0.44593491  0.44569198  0.20229590     0.94100
C60         C  0.54526040  0.54568922  0.30232432     0.93240
C61         C  0.54402089  0.54406623  0.20130315     0.85390
C62         C  0.44708465  0.44719428  0.30328315     0.91660
N63         N  0.65321904  0.99017575  0.07543692    -0.26440
N64         N  0.62207510  0.98700125  0.05644127    -0.34300
C65         C  0.59413878  0.98622605  0.07911386     0.01900
C66         C  0.60837193  0.98901721  0.11398031     0.07930
C67         C  0.64588050  0.99150696  0.11092192    -0.05170
H68         H  0.56578239  0.98421842  0.07074190     0.08590
H69         H  0.66641004  0.99442076  0.13268813     0.09790
Cu70       Cu  0.61905929  0.98514524  0.50059972     0.44170
Cu71       Cu  0.70394567  0.99319147  0.05119682     0.41990
Cu72       Cu  0.70298174  0.99185378  0.45116913     0.43880
N73         N  0.62147691  0.98623469  0.44476201    -0.33830
N74         N  0.65238226  0.98889748  0.42612918    -0.28080
C75         C  0.64497277  0.99004939  0.39053625    -0.04180
C76         C  0.60764662  0.98797824  0.38702544     0.08040
C77         C  0.59360560  0.98561347  0.42174912     0.01830
H78         H  0.66537850  0.99266912  0.36900922     0.09480
H79         H  0.56547919  0.98410240  0.42979107     0.08560
N80         N  0.74935236  0.99461146  0.48344470    -0.35270
N81         N  0.74979387  0.99514364  0.01924406    -0.27460
C82         C  0.78405863  0.99648676  0.03108728    -0.02690
C83         C  0.80642076  0.99677647  0.50136370     0.05920
C84         C  0.78329410  0.99560845  0.47164343     0.04010
H85         H  0.79177408  0.99701332  0.05938078     0.09110
H86         H  0.79009705  0.99498556  0.44335462     0.07950
N87         N  0.33987696  0.00410669  0.07307974    -0.26440
N88         N  0.36967476  0.00445533  0.05439154    -0.34300
C89         C  0.39693991  0.00382119  0.07737432     0.01900
C90         C  0.38363885  0.00304691  0.11213753     0.07930
C91         C  0.34739447  0.00323023  0.10868174    -0.05170
H92         H  0.42427158  0.00369614  0.06930177     0.08590
H93         H  0.32789040  0.00255613  0.13026222     0.09790
Cu94       Cu  0.37167766  0.00506594  0.99855673     0.44170
Cu95       Cu  0.29078415  0.00422608  0.04804903     0.41990
Cu96       Cu  0.29002962  0.00446023  0.44794088     0.43880
N97         N  0.36905734  0.00447644  0.44271301    -0.33830
N98         N  0.33925714  0.00422175  0.42369268    -0.28080
C99         C  0.34672823  0.00326230  0.38817627    -0.04180
C100        C  0.38289719  0.00292030  0.38514471     0.08040
C101        C  0.39621634  0.00369960  0.42004416     0.01830
H102        H  0.32722721  0.00261253  0.36636144     0.09480
H103        H  0.42349648  0.00345673  0.42843509     0.08560
N104        N  0.24475168  0.00341555  0.48019731    -0.35270
N105        N  0.24517211  0.00333331  0.01600987    -0.27460
C106        C  0.21113559  0.00189787  0.02810371    -0.02690
C107        C  0.18787106  0.00097018  0.49858711     0.05920
C108        C  0.21036021  0.00203706  0.46865241     0.04010
H109        H  0.20396453  0.00117619  0.05646653     0.09110
H110        H  0.20248611  0.00168379  0.44042512     0.07950
O111        O  0.51363272  0.95976047  0.21137868    -0.72090
O112        O  0.44072987  0.96401863  0.28767521    -0.73070
O113        O  0.44100953  0.96422489  0.21077575    -0.61690
O114        O  0.51336847  0.95951320  0.28828092    -0.70100
O115        O  0.55022449  0.02713549  0.28857225    -0.69660
O116        O  0.47785249  0.03184973  0.21104340    -0.60910
O117        O  0.47758979  0.03164205  0.28793335    -0.73420
O118        O  0.55047547  0.02738619  0.21166450    -0.72200
Cu119      Cu  0.47588871  0.95949560  0.24952213     1.04560
Cu120      Cu  0.51533454  0.03188626  0.24981777     1.04330
C121        C  0.54338267  0.99291380  0.19953685     0.94100
C122        C  0.44780350  0.99850666  0.29975496     0.93240
C123        C  0.44818171  0.99876799  0.19873663     0.85390
C124        C  0.54305862  0.99258040  0.30058398     0.91660
N125        N  0.00240701  0.33849036  0.42294916    -0.26440
N126        N  0.00408664  0.36903377  0.44161697    -0.34300
C127        C  0.00391240  0.39642714  0.41862949     0.01900
C128        C  0.00204108  0.38246752  0.38388516     0.07930
C129        C  0.00110356  0.34567867  0.38734801    -0.05170
H130        H  0.00481285  0.42429990  0.42669677     0.08590
H131        H  0.99940265  0.32559906  0.36577228     0.09790
Cu132      Cu  0.00565135  0.37209567  0.49744092     0.44170
Cu133      Cu  0.00158403  0.28892255  0.44789381     0.41990
Cu134      Cu  0.00283160  0.29009792  0.04799833     0.43880
N135        N  0.00505648  0.37009672  0.05329910    -0.33830
N136        N  0.00386326  0.33994679  0.07232411    -0.28080
C137        C  0.00295255  0.34760096  0.10782280    -0.04180
C138        C  0.00364011  0.38428773  0.11086096     0.08040
C139        C  0.00495009  0.39771063  0.07596190     0.01830
H140        H  0.00158019  0.32784774  0.12961682     0.09480
H141        H  0.00541755  0.42530742  0.06757109     0.08560
N142        N  0.00160807  0.24435479  0.01621310    -0.35270
N143        N  0.00109252  0.24388126  0.48039871    -0.27460
C144        C  0.00012597  0.20979087  0.46886375    -0.02690
C145        C  0.00002929  0.18755767  0.49878142     0.05920
C146        C  0.00100805  0.21060029  0.02831838     0.04010
H147        H  0.99971672  0.20209550  0.44063629     0.09110
H148        H  0.00093181  0.20343441  0.05666968     0.07950
N149        N  0.98548571  0.65096962  0.42267340    -0.26440
N150        N  0.98607359  0.62168018  0.44170689    -0.34300
C151        C  0.98726306  0.59463185  0.41904935     0.01900
C152        C  0.98743417  0.60748742  0.38413963     0.07930
C153        C  0.98630130  0.64326720  0.38716050    -0.05170
H154        H  0.98824152  0.56776950  0.42745560     0.08590
H155        H  0.98637874  0.66238546  0.36533719     0.09790
Cu156      Cu  0.98620514  0.61968861  0.49755474     0.44170
Cu157      Cu  0.98464000  0.70002837  0.44689738     0.41990
Cu158      Cu  0.98797832  0.70125361  0.04699248     0.43880
N159        N  0.98760418  0.62235256  0.05338429    -0.33830
N160        N  0.98834021  0.65243033  0.07205831    -0.28080
C161        C  0.98958560  0.64526944  0.10766276    -0.04180
C162        C  0.98961515  0.60896425  0.11113090     0.08040
C163        C  0.98835307  0.59525469  0.07637869     0.01830
H164        H  0.99054063  0.66501674  0.12923313     0.09480
H165        H  0.98816388  0.56772522  0.06832257     0.08560
N166        N  0.98785895  0.74620457  0.01496088    -0.35270
N167        N  0.98625216  0.74574570  0.47916406    -0.27460
C168        C  0.98699159  0.77980153  0.46764357    -0.02690
C169        C  0.98934341  0.80293336  0.49758487     0.05920
C170        C  0.98978377  0.78052486  0.02706493     0.04010
H171        H  0.98662971  0.78738037  0.43945261     0.09110
H172        H  0.99119786  0.78830447  0.05539514     0.07950
O173        O  0.95958777  0.51349509  0.28581285    -0.72090
O174        O  0.96458532  0.44163706  0.20857201    -0.73070
O175        O  0.96390708  0.44075326  0.28546893    -0.61690
O176        O  0.96028371  0.51434335  0.20893432    -0.70100
O177        O  0.02791137  0.55109020  0.20977611    -0.69660
O178        O  0.03153292  0.47749299  0.28631469    -0.60910
O179        O  0.03221276  0.47836684  0.20941431    -0.73420
O180        O  0.02721193  0.55024576  0.28668257    -0.72200
Cu181      Cu  0.95971063  0.47626491  0.24717129     1.04560
Cu182      Cu  0.03210349  0.51559310  0.24808227     1.04330
C183        C  0.99260668  0.54307307  0.29834378     0.94100
C184        C  0.99917508  0.44882597  0.19686580     0.93240
C185        C  0.99829155  0.44766664  0.29789631     0.85390
C186        C  0.99352489  0.54414422  0.19732800     0.91660
C187        C  0.03263637  0.99533848  0.50097129     0.03140
C188        C  0.03291251  0.03266547  0.50069092     0.03140
C189        C  0.99592650  0.03302218  0.50004736     0.03140
C190        C  0.95856121  0.99602354  0.50032846     0.03140
C191        C  0.95818838  0.95859566  0.50106723     0.03140
C192        C  0.99529472  0.95826061  0.50086347     0.03140
C193        C  0.98027294  0.85732968  0.46748080    -0.12500
C194        C  0.99153181  0.84307926  0.49813371     0.09650
C195        C  0.00472756  0.86748528  0.52947761    -0.12500
C196        C  0.00633639  0.90508594  0.53022921    -0.12500
C197        C  0.99490867  0.91899598  0.49967612     0.09650
C198        C  0.98193484  0.89498543  0.46828396    -0.12500
H199        H  0.96963475  0.83922459  0.44302539     0.13640
H200        H  0.01399452  0.85772346  0.55345783     0.13640
H201        H  0.01608348  0.92318916  0.55476070     0.13640
H202        H  0.97283212  0.90534562  0.44453041     0.13640
C203        C  0.99079329  0.56813565  0.32654283    -0.12420
C204        C  0.98921293  0.58744116  0.35178001    -0.13980
C205        C  0.99105986  0.58903011  0.14376133    -0.12420
C206        C  0.99223386  0.56961725  0.16916696    -0.13980
C207        C  0.99211667  0.12543907  0.46693027    -0.12500
C208        C  0.99887591  0.14781595  0.49913160     0.09650
C209        C  0.00452272  0.13178952  0.53166398    -0.12500
C210        C  0.00328882  0.09433644  0.53195841    -0.12500
C211        C  0.99646270  0.07232308  0.49979976     0.09650
C212        C  0.99106168  0.08808360  0.46728510    -0.12500
H213        H  0.98747912  0.13653801  0.44138598     0.13640
H214        H  0.01016642  0.14814416  0.55694218     0.13640
H215        H  0.00781405  0.08252905  0.55721925     0.13640
H216        H  0.98614788  0.07146134  0.44219242     0.13640
C217        C  0.00091386  0.42383734  0.16856693    -0.12420
C218        C  0.00224689  0.40451148  0.14323769    -0.13980
C219        C  0.00069024  0.40253489  0.35129683    -0.12420
C220        C  0.99957299  0.42209255  0.32597801    -0.13980
C221        C  0.12636905  0.99535106  0.46668394    -0.12500
C222        C  0.14764480  0.99883209  0.49910534     0.09650
C223        C  0.13006131  0.00031270  0.03214493    -0.12500
C224        C  0.09241563  0.99857359  0.03270791    -0.12500
C225        C  0.07164478  0.99533809  0.50033441     0.09650
C226        C  0.08867206  0.99363164  0.46733679    -0.12500
H227        H  0.13868414  0.99401303  0.44073388     0.13640
H228        H  0.14531550  0.00311526  0.05768372     0.13640
H229        H  0.07955482  0.00007589  0.05837786     0.13640
H230        H  0.07288476  0.99130917  0.44212879     0.13640
C231        C  0.40295522  0.00138268  0.35279607    -0.12420
C232        C  0.42242294  0.00004133  0.32767260    -0.13980
C233        C  0.40373754  0.00167411  0.14477612    -0.12420
C234        C  0.42306449  0.00040045  0.17029449    -0.13980
C235        C  0.86604097  0.00052618  0.46849382    -0.12500
C236        C  0.84582304  0.99719595  0.50126273     0.09650
C237        C  0.86347523  0.99383927  0.03381732    -0.12500
C238        C  0.90016940  0.99349241  0.03350900    -0.12500
C239        C  0.91982711  0.99657159  0.50072654     0.09650
C240        C  0.90268289  0.00018217  0.46827138    -0.12500
H241        H  0.85375645  0.00341509  0.44289506     0.13640
H242        H  0.84894080  0.99111646  0.05957429     0.13640
H243        H  0.91323432  0.99071768  0.05877933     0.13640
H244        H  0.91765075  0.00254957  0.44275871     0.13640
C245        C  0.56821380  0.99089663  0.32897250    -0.12420
C246        C  0.58755152  0.98949767  0.35443045    -0.13980
C247        C  0.56868553  0.99144620  0.17151548    -0.12420
C248        C  0.58815690  0.99029243  0.14631357    -0.13980
C249        C  0.85727873  0.86875571  0.97238314    -0.12500
C250        C  0.84592769  0.84417164  0.00354075     0.09650
C251        C  0.87148933  0.85806378  0.53419545    -0.12500
C252        C  0.90774663  0.89550557  0.53353847    -0.12500
C253        C  0.91897340  0.91964274  0.50227160     0.09650
C254        C  0.89352516  0.90609274  0.47174129    -0.12500
H255        H  0.83819192  0.85930660  0.94841332     0.13640
H256        H  0.86386544  0.83981384  0.55852322     0.13640
H257        H  0.92727224  0.90557551  0.55728405     0.13640
H258        H  0.90200437  0.92426374  0.44729937     0.13640
C259        C  0.57155566  0.57215236  0.33032058    -0.12420
C260        C  0.59165016  0.59231764  0.35568992    -0.13980
C261        C  0.58994784  0.58968214  0.14765265    -0.12420
C262        C  0.56981096  0.56977853  0.17293115    -0.13980
C263        C  0.12441783  0.12969404  0.46822764    -0.12500
C264        C  0.14645112  0.14570488  0.50064195     0.09650
C265        C  0.13056043  0.12397583  0.03303273    -0.12500
C266        C  0.09363216  0.08727031  0.53298391    -0.12500
C267        C  0.07206694  0.07154296  0.50060864     0.09650
C268        C  0.08752822  0.09288781  0.46824880    -0.12500
H269        H  0.13537789  0.14556714  0.44281258     0.13640
H270        H  0.14656936  0.13504593  0.05849251     0.13640
H271        H  0.08179035  0.07109513  0.05820976     0.13640
H272        H  0.07094919  0.08102001  0.44307420     0.13640
C273        C  0.42123116  0.42134994  0.33155816    -0.12420
C274        C  0.40116577  0.40127862  0.35679504    -0.13980
C275        C  0.39971852  0.39919709  0.14881168    -0.12420
C276        C  0.41972897  0.41930999  0.17422997    -0.13980
N277        N  0.33525050  0.33448274  0.57675085    -0.26440
N278        N  0.36480151  0.36444974  0.55823862    -0.34300
C279        C  0.39213759  0.39191606  0.58139046     0.01900
C280        C  0.37915295  0.37857935  0.61607517     0.07930
C281        C  0.34302153  0.34210608  0.61241040    -0.05170
H282        H  0.41941722  0.41953196  0.57348601     0.08590
H283        H  0.32385943  0.32263553  0.63388810     0.09790
Cu284      Cu  0.36690773  0.36691268  0.50242438     0.44170
Cu285      Cu  0.28638715  0.28536889  0.55147698     0.41990
Cu286      Cu  0.28642762  0.28601728  0.95134989     0.43880
N287        N  0.36514933  0.36522337  0.94656399    -0.33830
N288        N  0.33571786  0.33562179  0.92736179    -0.28080
C289        C  0.34390936  0.34382749  0.89189135    -0.04180
C290        C  0.38016552  0.38027196  0.88907089     0.08040
C291        C  0.39280026  0.39300015  0.92405430     0.01830
H292        H  0.32496566  0.32473806  0.86996043     0.09480
H293        H  0.42008019  0.42039409  0.93260119     0.08560
N294        N  0.24148820  0.24080268  0.98312840    -0.35270
N295        N  0.24157651  0.24061951  0.51894363    -0.27460
C296        C  0.20810322  0.20705072  0.53058267    -0.02690
C297        C  0.18564577  0.18482788  0.00074790     0.05920
C298        C  0.20790711  0.20732196  0.97112656     0.04010
H299        H  0.20076042  0.19977948  0.55883820     0.09110
H300        H  0.20059028  0.20001710  0.94280222     0.07950
N301        N  0.65703816  0.65400207  0.57725116    -0.26440
N302        N  0.62627163  0.62598170  0.55797695    -0.34300
C303        C  0.59777507  0.59899845  0.58041261     0.01900
C304        C  0.61122985  0.61058955  0.61542227     0.07930
C305        C  0.64886103  0.64552256  0.61269128    -0.05170
H306        H  0.56943608  0.57282903  0.57179249     0.08590
H307        H  0.66877888  0.66337766  0.63467181     0.09790
Cu308      Cu  0.62395811  0.62491932  0.50212351     0.44170
Cu309      Cu  0.70802659  0.70215185  0.55352836     0.41990
Cu310      Cu  0.70680920  0.70377646  0.95344107     0.43880
N311        N  0.62632999  0.62709207  0.94631454    -0.33830
N312        N  0.65690478  0.65604620  0.92788390    -0.28080
C313        C  0.64933353  0.64836538  0.89220454    -0.04180
C314        C  0.61223418  0.61291260  0.88844848     0.08040
C315        C  0.59850450  0.60023393  0.92310112     0.01830
H316        H  0.66933722  0.66703169  0.87078185     0.09480
H317        H  0.57047674  0.57336942  0.93094281     0.08560
N318        N  0.75219746  0.74798888  0.98592765    -0.35270
N319        N  0.75303673  0.74740867  0.52172025    -0.27460
C320        C  0.78656777  0.78113568  0.53353883    -0.02690
C321        C  0.80776719  0.80420849  0.50378396     0.05920
C322        C  0.78498737  0.78207328  0.97412482     0.04010
H323        H  0.79431579  0.78861588  0.56179410     0.09110
H324        H  0.79159525  0.78995211  0.94585884     0.07950
O325        O  0.44070369  0.47440317  0.71402735    -0.72090
O326        O  0.51646900  0.55068514  0.79014600    -0.73070
O327        O  0.51552755  0.54945291  0.71324070    -0.61690
O328        O  0.44161611  0.47558836  0.79090681    -0.70100
O329        O  0.47563817  0.44187991  0.79136709    -0.69660
O330        O  0.54952758  0.51572248  0.71372850    -0.60910
O331        O  0.55048013  0.51696636  0.79061140    -0.73420
O332        O  0.47471958  0.44068684  0.71449356    -0.72200
Cu333      Cu  0.47737875  0.51372202  0.75206939     1.04560
Cu334      Cu  0.51379049  0.47762845  0.75257175     1.04330
C335        C  0.44594431  0.44569883  0.70229461     0.94100
C336        C  0.54527024  0.54569904  0.80232264     0.93240
C337        C  0.54403440  0.54407331  0.70130276     0.85390
C338        C  0.44709124  0.44720397  0.80328144     0.91660
N339        N  0.65321720  0.99017286  0.57544178    -0.26440
N340        N  0.62207496  0.98700138  0.55644525    -0.34300
C341        C  0.59413885  0.98622800  0.57911699     0.01900
C342        C  0.60837008  0.98901731  0.61398386     0.07930
C343        C  0.64587750  0.99150403  0.61092660    -0.05170
H344        H  0.56578367  0.98422250  0.57074412     0.08590
H345        H  0.66640520  0.99441516  0.63269354     0.09790
Cu346      Cu  0.61905948  0.98514387  0.00059580     0.44170
Cu347      Cu  0.70394290  0.99318274  0.55120360     0.41990
Cu348      Cu  0.70298358  0.99185297  0.95116230     0.43880
N349        N  0.62147569  0.98622950  0.94475809    -0.33830
N350        N  0.65238014  0.98889144  0.92612425    -0.28080
C351        C  0.64496859  0.99004186  0.89053149    -0.04180
C352        C  0.60764226  0.98797075  0.88702200     0.08040
C353        C  0.59360325  0.98560748  0.92174617     0.01830
H354        H  0.66537358  0.99266177  0.86900371     0.09480
H355        H  0.56547777  0.98409778  0.92978919     0.08560
N356        N  0.74935936  0.99462333  0.98343986    -0.35270
N357        N  0.74978745  0.99512792  0.51924895    -0.27460
C358        C  0.78405048  0.99646504  0.53108941    -0.02690
C359        C  0.80643098  0.99679773  0.00136365     0.05920
C360        C  0.78330384  0.99562379  0.97164136     0.04010
H361        H  0.79176726  0.99698932  0.55938228     0.09110
H362        H  0.79010750  0.99499713  0.94335330     0.07950
N363        N  0.33987539  0.00410581  0.57307621    -0.26440
N364        N  0.36967482  0.00445621  0.55438927    -0.34300
C365        C  0.39693986  0.00382365  0.57737325     0.01900
C366        C  0.38363701  0.00304859  0.61213591     0.07930
C367        C  0.34739169  0.00322976  0.60867853    -0.05170
H368        H  0.42427255  0.00369996  0.56930189     0.08590
H369        H  0.32788607  0.00255428  0.63025817     0.09790
Cu370      Cu  0.37167972  0.00506647  0.49855449     0.44170
Cu371      Cu  0.29078184  0.00422204  0.54804371     0.41990
Cu372      Cu  0.29002991  0.00446656  0.94794566     0.43880
N373        N  0.36905449  0.00447716  0.94271533    -0.33830
N374        N  0.33925509  0.00422508  0.92369581    -0.28080
C375        C  0.34672531  0.00326581  0.88817915    -0.04180
C376        C  0.38289287  0.00292120  0.88514660     0.08040
C377        C  0.39621209  0.00369881  0.92004572     0.01830
H378        H  0.32722465  0.00261796  0.86636484     0.09480
H379        H  0.42349137  0.00345382  0.92843592     0.08560
N380        N  0.24475374  0.00342299  0.98020377    -0.35270
N381        N  0.24516933  0.00332669  0.51600339    -0.27460
C382        C  0.21113238  0.00189116  0.52809619    -0.02690
C383        C  0.18787390  0.00097777  0.99859534     0.05920
C384        C  0.21036221  0.00204510  0.96865993     0.04010
H385        H  0.20396154  0.00117142  0.55645883     0.09110
H386        H  0.20248757  0.00169289  0.94043292     0.07950
O387        O  0.51362606  0.95975970  0.71137896    -0.72090
O388        O  0.44072312  0.96401814  0.78767569    -0.73070
O389        O  0.44100359  0.96422571  0.71077614    -0.61690
O390        O  0.51336091  0.95951075  0.78828108    -0.70100
O391        O  0.55021815  0.02713295  0.78857356    -0.69660
O392        O  0.47784762  0.03185048  0.71104471    -0.60910
O393        O  0.47758423  0.03164147  0.78793478    -0.73420
O394        O  0.55046988  0.02738533  0.71166593    -0.72200
Cu395      Cu  0.47588188  0.95949489  0.74952245     1.04560
Cu396      Cu  0.51532892  0.03188545  0.74981921     1.04330
C397        C  0.54337680  0.99291299  0.69953789     0.94100
C398        C  0.44779737  0.99850621  0.79975593     0.93240
C399        C  0.44817667  0.99876921  0.69873734     0.85390
C400        C  0.54305173  0.99257732  0.80058436     0.91660
N401        N  0.00240376  0.33848777  0.92295181    -0.26440
N402        N  0.00408563  0.36903281  0.94161865    -0.34300
C403        C  0.00391296  0.39642620  0.91863025     0.01900
C404        C  0.00204033  0.38246481  0.88388642     0.07930
C405        C  0.00110035  0.34567497  0.88735045    -0.05170
H406        H  0.00481535  0.42430016  0.92669656     0.08590
H407        H  0.99939794  0.32559398  0.86577539     0.09790
Cu408      Cu  0.00565119  0.37209694  0.99744247     0.44170
Cu409      Cu  0.00157873  0.28891978  0.94789750     0.41990
Cu410      Cu  0.00283537  0.29009693  0.54799503     0.43880
N411        N  0.00505712  0.37009427  0.55329755    -0.33830
N412        N  0.00386548  0.33994468  0.57232194    -0.28080
C413        C  0.00295478  0.34759814  0.60782082    -0.04180
C414        C  0.00364067  0.38428406  0.61085977     0.08040
C415        C  0.00494969  0.39770719  0.57596095     0.01830
H416        H  0.00158353  0.32784498  0.62961447     0.09480
H417        H  0.00541583  0.42530350  0.56757071     0.08560
N418        N  0.00161098  0.24435419  0.51620835    -0.35270
N419        N  0.00108901  0.24388044  0.98040350    -0.27460
C420        C  0.00012410  0.20979052  0.96886959    -0.02690
C421        C  0.00002920  0.18755916  0.99878799     0.05920
C422        C  0.00100894  0.21059829  0.52831255     0.04010
H423        H  0.99971483  0.20209431  0.94064237     0.09110
H424        H  0.00093169  0.20343099  0.55666361     0.07950
N425        N  0.98549491  0.65097418  0.92266960    -0.26440
N426        N  0.98607114  0.62167938  0.94170421    -0.34300
C427        C  0.98725460  0.59462694  0.91904779     0.01900
C428        C  0.98743392  0.60748520  0.88413764     0.07930
C429        C  0.98631221  0.64327097  0.88715709    -0.05170
H430        H  0.98822459  0.56776047  0.92745518     0.08590
H431        H  0.98639918  0.66239315  0.86533308     0.09790
Cu432      Cu  0.98619928  0.61968667  0.99755218     0.44170
Cu433      Cu  0.98466345  0.70004197  0.94689092     0.41990
Cu434      Cu  0.98794155  0.70123521  0.54699917     0.43880
N435        N  0.98760288  0.62235071  0.55338688    -0.33830
N436        N  0.98832175  0.65241948  0.57206218    -0.28080
C437        C  0.98956480  0.64525629  0.60766644    -0.04180
C438        C  0.98961091  0.60895925  0.61113303     0.08040
C439        C  0.98836077  0.59525668  0.57638021     0.01830
H440        H  0.99050651  0.66499632  0.62923776     0.09480
H441        H  0.98818475  0.56773405  0.56832297     0.08560
N442        N  0.98781996  0.74618498  0.51496693    -0.35270
N443        N  0.98628476  0.74576378  0.97915818    -0.27460
C444        C  0.98701968  0.77981825  0.96763956    -0.02690
C445        C  0.98937530  0.80295020  0.99758210     0.05920
C446        C  0.98974455  0.78050590  0.52706928     0.04010
H447        H  0.98664977  0.78739524  0.93944923     0.09110
H448        H  0.99115691  0.78828595  0.55539919     0.07950
O449        O  0.95958741  0.51348967  0.78581309    -0.72090
O450        O  0.96458496  0.44163168  0.70857194    -0.73070
O451        O  0.96390721  0.44074823  0.78546881    -0.61690
O452        O  0.96028261  0.51433757  0.70893465    -0.70100
O453        O  0.02791027  0.55108491  0.70977593    -0.69660
O454        O  0.03153306  0.47748832  0.78631425    -0.60910
O455        O  0.03221237  0.47836190  0.70941387    -0.73420
O456        O  0.02721155  0.55024073  0.78668235    -0.72200
Cu457      Cu  0.95971022  0.47625947  0.74717139     1.04560
Cu458      Cu  0.03210307  0.51558811  0.74808192     1.04330
C459        C  0.99260632  0.54306791  0.79834378     0.94100
C460        C  0.99917472  0.44882084  0.69686549     0.93240
C461        C  0.99829183  0.44766197  0.79789606     0.85390
C462        C  0.99352355  0.54413866  0.69732823     0.91660
C463        C  0.03263713  0.99534088  0.00098468     0.03140
C464        C  0.03291343  0.03266777  0.00070354     0.03140
C465        C  0.99592777  0.03302457  0.00006076     0.03140
C466        C  0.95856217  0.99602619  0.00034404     0.03140
C467        C  0.95818846  0.95859742  0.00108541     0.03140
C468        C  0.99529533  0.95826261  0.00087882     0.03140
C469        C  0.98027260  0.85733255  0.96749005    -0.12500
C470        C  0.99155474  0.84309174  0.99813479     0.09650
C471        C  0.00476307  0.86750200  0.02947570    -0.12500
C472        C  0.00636153  0.90509760  0.03023266    -0.12500
C473        C  0.99491102  0.91899869  0.99968778     0.09650
C474        C  0.98192423  0.89498352  0.96829847    -0.12500
H475        H  0.96962438  0.83922343  0.94303744     0.13640
H476        H  0.01404823  0.85774737  0.05344929     0.13640
H477        H  0.01611972  0.92320444  0.05476180     0.13640
H478        H  0.97280512  0.90533709  0.94455086     0.13640
C479        C  0.99079298  0.56813088  0.82654256    -0.12420
C480        C  0.98921269  0.58743733  0.85177905    -0.13980
C481        C  0.99105686  0.58902482  0.64376274    -0.12420
C482        C  0.99223185  0.56961178  0.66916773    -0.13980
C483        C  0.99212028  0.12544108  0.96693882    -0.12500
C484        C  0.99887767  0.14781842  0.99913957     0.09650
C485        C  0.00452385  0.13179312  0.03167290    -0.12500
C486        C  0.00328994  0.09434011  0.03196900    -0.12500
C487        C  0.99646491  0.07232592  0.99981105     0.09650
C488        C  0.99106584  0.08808592  0.96729526    -0.12500
H489        H  0.98748361  0.13653932  0.94139378     0.13640
H490        H  0.01016647  0.14814828  0.05695067     0.13640
H491        H  0.00781409  0.08253329  0.05723064     0.13640
H492        H  0.98615341  0.07146322  0.94220305     0.13640
C493        C  0.00091361  0.42383238  0.66856643    -0.12420
C494        C  0.00224696  0.40450696  0.64323694    -0.13980
C495        C  0.00069030  0.40253142  0.85129745    -0.12420
C496        C  0.99957346  0.42208848  0.82597805    -0.13980
C497        C  0.12636162  0.99533814  0.96669535    -0.12500
C498        C  0.14764744  0.99883884  0.99911493     0.09650
C499        C  0.13004901  0.00028780  0.53213571    -0.12500
C500        C  0.09240406  0.99855049  0.53269729    -0.12500
C501        C  0.07164609  0.99534151  0.00034678     0.09650
C502        C  0.08866385  0.99361700  0.96734957    -0.12500
H503        H  0.13866903  0.99398498  0.94074580     0.13640
H504        H  0.14529463  0.00307398  0.55767608     0.13640
H505        H  0.07953599  0.00003911  0.55836762     0.13640
H506        H  0.07286853  0.99127911  0.94214287     0.13640
C507        C  0.40294980  0.00138297  0.85279740    -0.12420
C508        C  0.42241697  0.00004113  0.82767366    -0.13980
C509        C  0.40373457  0.00167624  0.64477543    -0.12420
C510        C  0.42306052  0.00040254  0.67029462    -0.13980
C511        C  0.86605168  0.00054156  0.96849997    -0.12500
C512        C  0.84583237  0.99721543  0.00126699     0.09650
C513        C  0.86346965  0.99382033  0.53381084    -0.12500
C514        C  0.90016738  0.99348061  0.53349874    -0.12500
C515        C  0.91982942  0.99657708  0.00073843     0.09650
C516        C  0.90269030  0.00019103  0.96828136    -0.12500
H517        H  0.85377046  0.00343172  0.94289981     0.13640
H518        H  0.84893589  0.99109343  0.55956896     0.13640
H519        H  0.91323516  0.99070609  0.55876744     0.13640
H520        H  0.91765953  0.00255579  0.94277004     0.13640
C521        C  0.56820753  0.99089207  0.82897158    -0.12420
C522        C  0.58754623  0.98949158  0.85442808    -0.13980
C523        C  0.56868067  0.99144548  0.67151731    -0.12420
C524        C  0.58815356  0.99029213  0.64631640    -0.13980
C525        C  0.85729139  0.86874521  0.47235409    -0.12500
C526        C  0.84592836  0.84417170  0.50351893     0.09650
C527        C  0.87150002  0.85805347  0.03421038    -0.12500
C528        C  0.90775736  0.89549599  0.03355305    -0.12500
C529        C  0.91897275  0.91964393  0.00229259     0.09650
C530        C  0.89351251  0.90610301  0.97176958    -0.12500
H531        H  0.83821395  0.85928828  0.44837842     0.13640
H532        H  0.86388477  0.83979460  0.05853220     0.13640
H533        H  0.92729190  0.90555789  0.05729304     0.13640
H534        H  0.90198269  0.92428044  0.94733179     0.13640
C535        C  0.57156634  0.57216396  0.83031796    -0.12420
C536        C  0.59166077  0.59233018  0.85568712    -0.13980
C537        C  0.58996610  0.58969037  0.64765478    -0.12420
C538        C  0.56982770  0.56978627  0.67293249    -0.13980
C539        C  0.12442111  0.12968825  0.96822949    -0.12500
C540        C  0.14645187  0.14570766  0.00064352     0.09650
C541        C  0.13056238  0.12396477  0.53302780    -0.12500
C542        C  0.09363026  0.08728144  0.03299238    -0.12500
C543        C  0.07206784  0.07154538  0.00061741     0.09650
C544        C  0.08753160  0.09288179  0.96825422    -0.12500
H545        H  0.13538326  0.14555451  0.94281180     0.13640
H546        H  0.14657387  0.13502838  0.55848737     0.13640
H547        H  0.08179432  0.07107724  0.55819874     0.13640
H548        H  0.07095452  0.08100728  0.94307978     0.13640
C549        C  0.42123560  0.42135946  0.83155566    -0.12420
C550        C  0.40116893  0.40128674  0.85679161    -0.13980
C551        C  0.39972337  0.39919954  0.64881374    -0.12420
C552        C  0.41973664  0.41931470  0.67423015    -0.13980
loop_ 
_geom_bond_atom_site_label_1 
_geom_bond_atom_site_label_2 
_geom_bond_distance 
_geom_bond_site_symmetry_2 
_ccdc_geom_bond_type 
N1            N2   1.322       .  A
N1            C5   1.348       .  A
N1           Cu9   2.075       .  S
N2            C3   1.343       .  A
N2           Cu8   2.064       .  S
C3            C4   1.377       .  A
C3            H6   1.082       .  S
C4            C5   1.382       .  A
C4          C275   1.436       .  S
C5            H7   1.082       .  S
Cu8         N287   2.064   1_554  S
Cu9          N19   2.075       .  S
Cu10         N12   2.077       .  S
Cu10         N18   2.077       .  S
N11          N12   1.322       .  A
N11          C15   1.343       .  A
N11        Cu284   2.064       .  S
N12          C13   1.348       .  A
C13          C14   1.382       .  A
C13          H16   1.082       .  S
C14          C15   1.377       .  A
C14         C274   1.437       .  S
C15          H17   1.082       .  S
N18         N295   1.323       .  A
N18          C22   1.344       .  A
N19         N294   1.323   1_554  A
N19          C20   1.343       .  A
C20         C297   1.387       .  A
C20          H23   1.081       .  S
C21          C22   1.387       .  A
C21         C296   1.387       .  A
C21         C264   1.484       .  S
C22          H24   1.081       .  S
N25          N26   1.322       .  A
N25          C29   1.348       .  A
N25         Cu33   2.079       .  S
N26          C27   1.343       .  A
N26         Cu32   2.064       .  S
C27          C28   1.377       .  A
C27          H30   1.082       .  S
C28          C29   1.382       .  A
C28         C261   1.437       .  S
C29          H31   1.082       .  S
Cu32        N311   2.064   1_554  S
Cu33         N43   2.080       .  S
Cu34         N36   2.075       .  S
Cu34         N42   2.075       .  S
N35          N36   1.322       .  A
N35          C39   1.343       .  A
N35        Cu308   2.064       .  S
N36          C37   1.348       .  A
C37          C38   1.383       .  A
C37          H40   1.082       .  S
C38          C39   1.377       .  A
C38         C260   1.437       .  S
C39          H41   1.082       .  S
N42         N319   1.323       .  A
N42          C46   1.343       .  A
N43         N318   1.323   1_554  A
N43          C44   1.346       .  A
C44          C45   1.387       .  A
C44          H47   1.082       .  S
C45         C322   1.385   1_554  A
C45         C250   1.482       .  S
C46         C321   1.385       .  A
C46          H48   1.081       .  S
O49         Cu57   2.010       .  S
O49          C59   1.276       .  A
O50         Cu57   2.010       .  S
O50          C60   1.276       .  A
O51         Cu57   2.011       .  S
O51          C61   1.277       .  A
O52         Cu57   2.011       .  S
O52          C62   1.277       .  A
O53         Cu58   2.010       .  S
O53          C62   1.276       .  A
O54         Cu58   2.010       .  S
O54          C61   1.276       .  A
O55         Cu58   2.010       .  S
O55          C60   1.276       .  A
O56         Cu58   2.010       .  S
O56          C59   1.276       .  A
Cu57        Cu58   2.380       .  S
C59         C276   1.435       .  S
C60         C259   1.435       .  S
C61         C262   1.435       .  S
C62         C273   1.435       .  S
N63          N64   1.322       .  A
N63          C67   1.348       .  A
N63         Cu71   2.077       .  S
N64          C65   1.343       .  A
N64        Cu346   2.065       .  S
C65          C66   1.377       .  A
C65          H68   1.082       .  S
C66          C67   1.382       .  A
C66         C248   1.437       .  S
C67          H69   1.082       .  S
Cu70         N73   2.065       .  S
Cu70        N340   2.065       .  S
Cu71         N81   2.077       .  S
Cu72         N74   2.076       .  S
Cu72         N80   2.077       .  S
N73          N74   1.322       .  A
N73          C77   1.343       .  A
N74          C75   1.348       .  A
C75          C76   1.382       .  A
C75          H78   1.082       .  S
C76          C77   1.377       .  A
C76         C246   1.437       .  S
C77          H79   1.082       .  S
N80         N357   1.323       .  A
N80          C84   1.343       .  A
N81         N356   1.323   1_554  A
N81          C82   1.344       .  A
C82         C359   1.388       .  A
C82          H85   1.081       .  S
C83          C84   1.387       .  A
C83         C358   1.388       .  A
C83         C236   1.485       .  S
C84          H86   1.081       .  S
N87          N88   1.322       .  A
N87          C91   1.348       .  A
N87         Cu95   2.075       .  S
N88          C89   1.343       .  A
N88         Cu94   2.064   1_554  S
C89          C90   1.377       .  A
C89          H92   1.082       .  S
C90          C91   1.382       .  A
C90         C233   1.437       .  S
C91          H93   1.082       .  S
Cu94        N373   2.064       .  S
Cu95        N105   2.075       .  S
Cu96         N98   2.079       .  S
Cu96        N104   2.079       .  S
N97          N98   1.322       .  A
N97         C101   1.343       .  A
N97        Cu370   2.064       .  S
N98          C99   1.348       .  A
C99         C100   1.383       .  A
C99         H102   1.082       .  S
C100        C101   1.376       .  A
C100        C231   1.437       .  S
C101        H103   1.082       .  S
N104        N381   1.323       .  A
N104        C108   1.345       .  A
N105        N380   1.323   1_554  A
N105        C106   1.343       .  A
C106        C383   1.387   1_554  A
C106        H109   1.081       .  S
C107        C108   1.388       .  A
C107        C382   1.387       .  A
C107        C222   1.486   1_545  S
C108        H110   1.081       .  S
O111       Cu119   2.010       .  S
O111        C121   1.277       .  A
O112       Cu119   2.011       .  S
O112        C122   1.277       .  A
O113       Cu119   2.010       .  S
O113        C123   1.276       .  A
O114       Cu119   2.010       .  S
O114        C124   1.276       .  A
O115       Cu120   2.011       .  S
O115        C124   1.277   1_545  A
O116       Cu120   2.011       .  S
O116        C123   1.277   1_545  A
O117       Cu120   2.010       .  S
O117        C122   1.276   1_545  A
O118       Cu120   2.010       .  S
O118        C121   1.276   1_545  A
Cu119      Cu120   2.380   1_565  S
C121        C247   1.435       .  S
C122        C232   1.435   1_565  S
C123        C234   1.435   1_565  S
C124        C245   1.436       .  S
N125        N126   1.322       .  A
N125        C129   1.348       .  A
N125       Cu133   2.077       .  S
N126        C127   1.343       .  A
N126       Cu132   2.064       .  S
C127        C128   1.377       .  A
C127        H130   1.082       .  S
C128        C129   1.383       .  A
C128        C219   1.437       .  S
C129        H131   1.082   1_455  S
Cu132       N411   2.064       .  S
Cu133       N143   2.078       .  S
Cu134       N136   2.076       .  S
Cu134       N142   2.076       .  S
N135        N136   1.322       .  A
N135        C139   1.343       .  A
N135       Cu408   2.064   1_554  S
N136        C137   1.348       .  A
C137        C138   1.382       .  A
C137        H140   1.082       .  S
C138        C139   1.377       .  A
C138        C218   1.437       .  S
C139        H141   1.082       .  S
N142        N419   1.323   1_554  A
N142        C146   1.344       .  A
N143        N418   1.323       .  A
N143        C144   1.344       .  A
C144        C145   1.387       .  A
C144        H147   1.081   1_455  S
C145        C422   1.387       .  A
C145        C208   1.485   1_455  S
C146        C421   1.387   1_554  A
C146        H148   1.081       .  S
N149        N150   1.322       .  A
N149        C153   1.348       .  A
N149       Cu157   2.079       .  S
N150        C151   1.343       .  A
N150       Cu156   2.064       .  S
C151        C152   1.377       .  A
C151        H154   1.082       .  S
C152        C153   1.383       .  A
C152        C204   1.437       .  S
C153        H155   1.082       .  S
Cu156       N435   2.064       .  S
Cu157       N167   2.080       .  S
Cu158       N160   2.074       .  S
Cu158       N166   2.074       .  S
N159        N160   1.322       .  A
N159        C163   1.343       .  A
N159       Cu432   2.064   1_554  S
N160        C161   1.348       .  A
C161        C162   1.382       .  A
C161        H164   1.082       .  S
C162        C163   1.377       .  A
C162        C205   1.437       .  S
C163        H165   1.082       .  S
N166        N443   1.323   1_554  A
N166        C170   1.343       .  A
N167        N442   1.323       .  A
N167        C168   1.345       .  A
C168        C169   1.387       .  A
C168        H171   1.082       .  S
C169        C446   1.385       .  A
C169        C194   1.482       .  S
C170        C445   1.385   1_554  A
C170        H172   1.081       .  S
O173       Cu181   2.010       .  S
O173        C183   1.276       .  A
O174       Cu181   2.010       .  S
O174        C184   1.276       .  A
O175       Cu181   2.011       .  S
O175        C185   1.276       .  A
O176       Cu181   2.010       .  S
O176        C186   1.276       .  A
O177       Cu182   2.010       .  S
O177        C186   1.276   1_455  A
O178       Cu182   2.010       .  S
O178        C185   1.277   1_455  A
O179       Cu182   2.011       .  S
O179        C184   1.277   1_455  A
O180       Cu182   2.011       .  S
O180        C183   1.277   1_455  A
Cu181      Cu182   2.379   1_655  S
C183        C203   1.436       .  S
C184        C217   1.435   1_655  S
C185        C220   1.436       .  S
C186        C206   1.435       .  S
C187        C188   1.409   1_565  A
C187        C192   1.411   1_455  A
C187        C225   1.479       .  S
C188        C189   1.409   1_455  A
C188        C267   1.479       .  S
C189        C190   1.410   1_545  A
C189        C211   1.479       .  S
C190        C191   1.412       .  A
C190        C239   1.479       .  S
C191        C192   1.413       .  A
C191        C253   1.482       .  S
C192        C197   1.482       .  S
C193        C194   1.406       .  A
C193        C198   1.397       .  A
C193        H199   1.082       .  S
C194        C195   1.407   1_655  A
C195        C196   1.396       .  A
C195        H200   1.082       .  S
C196        C197   1.400   1_455  A
C196        H201   1.083       .  S
C197        C198   1.401       .  A
C198        H202   1.083       .  S
C203        C204   1.206       .  T
C205        C206   1.206       .  T
C207        C208   1.408       .  A
C207        C212   1.396       .  A
C207        H213   1.081       .  S
C208        C209   1.408   1_655  A
C209        C210   1.397       .  A
C209        H214   1.081       .  S
C210        C211   1.399   1_455  A
C210        H215   1.083       .  S
C211        C212   1.399       .  A
C212        H216   1.083       .  S
C217        C218   1.206       .  T
C219        C220   1.206   1_455  T
C221        C222   1.409       .  A
C221        C226   1.398       .  A
C221        H227   1.081       .  S
C222        C499   1.408   1_565  A
C223        C224   1.395   1_545  A
C223        C498   1.408   1_544  A
C223        H228   1.081       .  S
C224        C501   1.399       .  A
C224        H229   1.083   1_565  S
C225        C226   1.399       .  A
C225        C500   1.399       .  A
C226        H230   1.083       .  S
C231        C232   1.206       .  T
C233        C234   1.206       .  T
C235        C236   1.408   1_545  A
C235        C240   1.395       .  A
C235        H241   1.081       .  S
C236        C513   1.409       .  A
C237        C238   1.397       .  A
C237        C512   1.409       .  A
C237        H242   1.081       .  S
C238        C515   1.399       .  A
C238        H243   1.083       .  S
C239        C240   1.399   1_565  A
C239        C514   1.399       .  A
C240        H244   1.083       .  S
C245        C246   1.206       .  T
C247        C248   1.206       .  T
C249        C250   1.407   1_556  A
C249        C530   1.395       .  A
C249        H255   1.082       .  S
C250        C527   1.407       .  A
C251        C252   1.398       .  A
C251        C526   1.407       .  A
C251        H256   1.082       .  S
C252        C253   1.402       .  A
C252        H257   1.083       .  S
C253        C254   1.400       .  A
C254        C525   1.395       .  A
C254        H258   1.083       .  S
C259        C260   1.206       .  T
C261        C262   1.206       .  T
C263        C264   1.408       .  A
C263        C268   1.397       .  A
C263        H269   1.081       .  S
C264        C541   1.408       .  A
C265        C540   1.408       .  A
C265        C542   1.395       .  A
C265        H270   1.081       .  S
C266        C267   1.399       .  A
C266        C541   1.395       .  A
C266        H547   1.083       .  S
C267        C268   1.399       .  A
C268        H272   1.083       .  S
H271        C542   1.083       .  S
C273        C274   1.206       .  T
C275        C276   1.206       .  T
N277        N278   1.322       .  A
N277        C281   1.348       .  A
N277       Cu285   2.075       .  S
N278        C279   1.343       .  A
N278       Cu284   2.064       .  S
C279        C280   1.377       .  A
C279        H282   1.082       .  S
C280        C281   1.382       .  A
C280        C551   1.436       .  S
C281        H283   1.082       .  S
Cu285       N295   2.075       .  S
Cu286       N288   2.077       .  S
Cu286       N294   2.077       .  S
N287        N288   1.322       .  A
N287        C291   1.343       .  A
N288        C289   1.348       .  A
C289        C290   1.382       .  A
C289        H292   1.082       .  S
C290        C291   1.377       .  A
C290        C550   1.437       .  S
C291        H293   1.082       .  S
N294        C298   1.344       .  A
N295        C296   1.343       .  A
C296        H299   1.081       .  S
C297        C298   1.387   1_554  A
C297        C540   1.484       .  S
C298        H300   1.081       .  S
N301        N302   1.322       .  A
N301        C305   1.348       .  A
N301       Cu309   2.079       .  S
N302        C303   1.343       .  A
N302       Cu308   2.064       .  S
C303        C304   1.377       .  A
C303        H306   1.082       .  S
C304        C305   1.382       .  A
C304        C537   1.437       .  S
C305        H307   1.082       .  S
Cu309       N319   2.080       .  S
Cu310       N312   2.075       .  S
Cu310       N318   2.075       .  S
N311        N312   1.322       .  A
N311        C315   1.343       .  A
N312        C313   1.348       .  A
C313        C314   1.383       .  A
C313        H316   1.082       .  S
C314        C315   1.377       .  A
C314        C536   1.437       .  S
C315        H317   1.082       .  S
N318        C322   1.343       .  A
N319        C320   1.346       .  A
C320        C321   1.387       .  A
C320        H323   1.082       .  S
C321        C526   1.482       .  S
C322        H324   1.081       .  S
O325       Cu333   2.010       .  S
O325        C335   1.276       .  A
O326       Cu333   2.010       .  S
O326        C336   1.276       .  A
O327       Cu333   2.011       .  S
O327        C337   1.277       .  A
O328       Cu333   2.011       .  S
O328        C338   1.277       .  A
O329       Cu334   2.010       .  S
O329        C338   1.276       .  A
O330       Cu334   2.010       .  S
O330        C337   1.276       .  A
O331       Cu334   2.010       .  S
O331        C336   1.276       .  A
O332       Cu334   2.010       .  S
O332        C335   1.276       .  A
Cu333      Cu334   2.380       .  S
C335        C552   1.435       .  S
C336        C535   1.435       .  S
C337        C538   1.435       .  S
C338        C549   1.435       .  S
N339        N340   1.322       .  A
N339        C343   1.348       .  A
N339       Cu347   2.077       .  S
N340        C341   1.343       .  A
C341        C342   1.377       .  A
C341        H344   1.082       .  S
C342        C343   1.382       .  A
C342        C524   1.437       .  S
C343        H345   1.082       .  S
Cu346       N349   2.065   1_554  S
Cu347       N357   2.077       .  S
Cu348       N350   2.076       .  S
Cu348       N356   2.077       .  S
N349        N350   1.322       .  A
N349        C353   1.343       .  A
N350        C351   1.348       .  A
C351        C352   1.382       .  A
C351        H354   1.082       .  S
C352        C353   1.377       .  A
C352        C522   1.437       .  S
C353        H355   1.082       .  S
N356        C360   1.343       .  A
N357        C358   1.344       .  A
C358        H361   1.081       .  S
C359        C360   1.387   1_554  A
C359        C512   1.485       .  S
C360        H362   1.081       .  S
N363        N364   1.322       .  A
N363        C367   1.348       .  A
N363       Cu371   2.075       .  S
N364        C365   1.343       .  A
N364       Cu370   2.064       .  S
C365        C366   1.377       .  A
C365        H368   1.082       .  S
C366        C367   1.382       .  A
C366        C509   1.437       .  S
C367        H369   1.082       .  S
Cu371       N381   2.075       .  S
Cu372       N374   2.079       .  S
Cu372       N380   2.079       .  S
N373        N374   1.322       .  A
N373        C377   1.343       .  A
N374        C375   1.348       .  A
C375        C376   1.383       .  A
C375        H378   1.082       .  S
C376        C377   1.376       .  A
C376        C507   1.437       .  S
C377        H379   1.082       .  S
N380        C384   1.345       .  A
N381        C382   1.343       .  A
C382        H385   1.081       .  S
C383        C384   1.388       .  A
C383        C498   1.486   1_545  S
C384        H386   1.081       .  S
O387       Cu395   2.010       .  S
O387        C397   1.277       .  A
O388       Cu395   2.011       .  S
O388        C398   1.277       .  A
O389       Cu395   2.010       .  S
O389        C399   1.276       .  A
O390       Cu395   2.010       .  S
O390        C400   1.276       .  A
O391       Cu396   2.011       .  S
O391        C400   1.277   1_545  A
O392       Cu396   2.011       .  S
O392        C399   1.277   1_545  A
O393       Cu396   2.010       .  S
O393        C398   1.276   1_545  A
O394       Cu396   2.010       .  S
O394        C397   1.276   1_545  A
Cu395      Cu396   2.380   1_565  S
C397        C523   1.435       .  S
C398        C508   1.435   1_565  S
C399        C510   1.435   1_565  S
C400        C521   1.436       .  S
N401        N402   1.322       .  A
N401        C405   1.348       .  A
N401       Cu409   2.077       .  S
N402        C403   1.343       .  A
N402       Cu408   2.064       .  S
C403        C404   1.377       .  A
C403        H406   1.082       .  S
C404        C405   1.383       .  A
C404        C495   1.437       .  S
C405        H407   1.082   1_455  S
Cu409       N419   2.078       .  S
Cu410       N412   2.076       .  S
Cu410       N418   2.076       .  S
N411        N412   1.322       .  A
N411        C415   1.343       .  A
N412        C413   1.348       .  A
C413        C414   1.382       .  A
C413        H416   1.082       .  S
C414        C415   1.377       .  A
C414        C494   1.437       .  S
C415        H417   1.082       .  S
N418        C422   1.344       .  A
N419        C420   1.344       .  A
C420        C421   1.387       .  A
C420        H423   1.081   1_455  S
C421        C484   1.485   1_455  S
C422        H424   1.081       .  S
N425        N426   1.322       .  A
N425        C429   1.348       .  A
N425       Cu433   2.079       .  S
N426        C427   1.343       .  A
N426       Cu432   2.064       .  S
C427        C428   1.377       .  A
C427        H430   1.082       .  S
C428        C429   1.383       .  A
C428        C480   1.437       .  S
C429        H431   1.082       .  S
Cu433       N443   2.080       .  S
Cu434       N436   2.074       .  S
Cu434       N442   2.074       .  S
N435        N436   1.322       .  A
N435        C439   1.343       .  A
N436        C437   1.348       .  A
C437        C438   1.382       .  A
C437        H440   1.082       .  S
C438        C439   1.377       .  A
C438        C481   1.437       .  S
C439        H441   1.082       .  S
N442        C446   1.343       .  A
N443        C444   1.345       .  A
C444        C445   1.387       .  A
C444        H447   1.082       .  S
C445        C470   1.482       .  S
C446        H448   1.081       .  S
O449       Cu457   2.010       .  S
O449        C459   1.276       .  A
O450       Cu457   2.010       .  S
O450        C460   1.276       .  A
O451       Cu457   2.011       .  S
O451        C461   1.276       .  A
O452       Cu457   2.010       .  S
O452        C462   1.276       .  A
O453       Cu458   2.010       .  S
O453        C462   1.276   1_455  A
O454       Cu458   2.010       .  S
O454        C461   1.277   1_455  A
O455       Cu458   2.011       .  S
O455        C460   1.277   1_455  A
O456       Cu458   2.011       .  S
O456        C459   1.277   1_455  A
Cu457      Cu458   2.379   1_655  S
C459        C479   1.436       .  S
C460        C493   1.435   1_655  S
C461        C496   1.436       .  S
C462        C482   1.435       .  S
C463        C464   1.409   1_565  A
C463        C468   1.411   1_455  A
C463        C501   1.479       .  S
C464        C465   1.409   1_455  A
C464        C543   1.479       .  S
C465        C466   1.410   1_545  A
C465        C487   1.479   1_554  S
C466        C467   1.412       .  A
C466        C515   1.479       .  S
C467        C468   1.413       .  A
C467        C529   1.483       .  S
C468        C473   1.482   1_554  S
C469        C470   1.406       .  A
C469        C474   1.397       .  A
C469        H475   1.082       .  S
C470        C471   1.407   1_656  A
C471        C472   1.396       .  A
C471        H476   1.082       .  S
C472        C473   1.400   1_454  A
C472        H477   1.083       .  S
C473        C474   1.401       .  A
C474        H478   1.083       .  S
C479        C480   1.206       .  T
C481        C482   1.206       .  T
C483        C484   1.408       .  A
C483        C488   1.396       .  A
C483        H489   1.081       .  S
C484        C485   1.408   1_656  A
C485        C486   1.397       .  A
C485        H490   1.081       .  S
C486        C487   1.399   1_454  A
C486        H491   1.083       .  S
C487        C488   1.399       .  A
C488        H492   1.083       .  S
C493        C494   1.206       .  T
C495        C496   1.206   1_455  T
C497        C498   1.409       .  A
C497        C502   1.398       .  A
C497        H503   1.081       .  S
C499        C500   1.395   1_545  A
C499        H504   1.081       .  S
C500        H505   1.083   1_565  S
C501        C502   1.399   1_554  A
C502        H506   1.083       .  S
C507        C508   1.206       .  T
C509        C510   1.206       .  T
C511        C512   1.408   1_546  A
C511        C516   1.395       .  A
C511        H517   1.081       .  S
C513        C514   1.397       .  A
C513        H518   1.081       .  S
C514        H519   1.083       .  S
C515        C516   1.399   1_564  A
C516        H520   1.083       .  S
C521        C522   1.206       .  T
C523        C524   1.206       .  T
C525        C526   1.407       .  A
C525        H531   1.082       .  S
C527        C528   1.398       .  A
C527        H532   1.082       .  S
C528        C529   1.402       .  A
C528        H533   1.083       .  S
C529        C530   1.400   1_554  A
C530        H534   1.083       .  S
C535        C536   1.206       .  T
C537        C538   1.206       .  T
C539        C540   1.408   1_556  A
C539        C544   1.397       .  A
C539        H545   1.081       .  S
C541        H546   1.081       .  S
C542        C543   1.399       .  A
C543        C544   1.399   1_554  A
C544        H548   1.083       .  S
C549        C550   1.206       .  T
C551        C552   1.206       .  T
