geometry optimzed in LAMMPS
_audit_creation_date              2020-11-30 
_audit_creation_method            'lammps2cif' 
_symmetry_space_group_name_H-M    'P1' 
_symmetry_Int_Tables_number       1 
_symmetry_cell_setting            triclinic 
loop_ 
_symmetry_equiv_pos_as_xyz 
  x,y,z 
_cell_length_a                    44.32610319 
_cell_length_b                    44.39382256632457 
_cell_length_c                    71.43082390321705 
_cell_angle_alpha                 90.09557117788107 
_cell_angle_beta                  90.20725048393584 
_cell_angle_gamma                 89.96073171015581 
loop_ 
_atom_site_label 
_atom_site_type_symbol 
_atom_site_fract_x 
_atom_site_fract_y 
_atom_site_fract_z 
_atom_site_charge 
O1          O  0.05800205  0.49603423  0.66117671    -0.73600
O2          O  0.04472312  0.49385634  0.71769227    -0.74600
O3          O  0.05234070  0.45014905  0.68899980    -0.63200
O4          O  0.05023662  0.04003537  0.69234674    -0.71600
O5          O  0.50175339  0.04002708  0.68701174    -0.71100
O6          O  0.50286831  0.44906730  0.68536452    -0.62400
O7          O  0.49555377  0.99324899  0.71474024    -0.74900
O8          O  0.50709652  0.99577188  0.65850520    -0.73700
Cu9        Cu  0.05317034  0.49525304  0.68970865     1.04600
Cu10       Cu  0.49968421  0.99490847  0.68631694     1.04300
C11         C  0.03492209  0.49496119  0.65033958     0.92600
C12         C  0.51848131  0.99065615  0.72558950     0.91800
C13         C  0.02765450  0.43562010  0.68718276     0.83900
C14         C  0.02570873  0.05474331  0.68995716     0.90200
O15         O  0.50139922  0.20087702  0.68744852    -0.73600
O16         O  0.50225686  0.29129579  0.68578474    -0.74600
O17         O  0.50742521  0.24443479  0.65871975    -0.63200
O18         O  0.49582581  0.24847935  0.71491959    -0.71600
O19         O  0.04497567  0.24956868  0.71889802    -0.71100
O20         O  0.05673462  0.24336077  0.66239881    -0.62400
O21         O  0.05178969  0.29129162  0.68912993    -0.74900
O22         O  0.05000057  0.20115106  0.69266798    -0.73700
Cu23       Cu  0.50003406  0.24619950  0.68660130     1.04600
Cu24       Cu  0.05260041  0.24623836  0.69090833     1.04300
C25         C  0.52587870  0.18631581  0.69022541     0.92600
C26         C  0.52731557  0.30530821  0.68725003     0.91800
C27         C  0.53385320  0.24311919  0.65163035     0.83900
C28         C  0.51874518  0.25044395  0.72581155     0.90200
O29         O  0.24465867  0.50427298  0.66033595    -0.73600
O30         O  0.25290790  0.49960299  0.71705380    -0.74600
O31         O  0.24774635  0.45711595  0.68746887    -0.63200
O32         O  0.24903664  0.04928235  0.69051422    -0.71600
O33         O  0.19929170  0.04795653  0.69345348    -0.71100
O34         O  0.19789736  0.45815617  0.69013679    -0.62400
O35         O  0.20317630  0.50037089  0.71982783    -0.74900
O36         O  0.19486259  0.50525139  0.66293114    -0.73700
Cu37       Cu  0.25044188  0.50232352  0.68861915     1.04600
Cu38       Cu  0.19884497  0.00243029  0.69236186     1.04300
C39         C  0.21851242  0.50498707  0.65265686     0.92600
C40         C  0.22936986  0.49803012  0.72735438     0.91800
C41         C  0.22248440  0.44337842  0.68856372     0.83900
C42         C  0.22377518  0.06299593  0.69204272     0.90200
O43         O  0.19598082  0.20799251  0.69141714    -0.73600
O44         O  0.19444089  0.29881222  0.68985901    -0.74600
O45         O  0.19025032  0.25230597  0.66227060    -0.63200
O46         O  0.20026314  0.25513339  0.71885765    -0.71600
O47         O  0.24987275  0.25639035  0.71551382    -0.71100
O48         O  0.24001652  0.25234919  0.65921358    -0.62400
O49         O  0.24418646  0.29913363  0.68639039    -0.74900
O50         O  0.24576310  0.20871451  0.68856101    -0.73700
Cu51       Cu  0.19348042  0.25344609  0.69070370     1.04600
Cu52       Cu  0.24663540  0.25406830  0.68728953     1.04300
C53         C  0.22114973  0.19400587  0.69029473     0.92600
C54         C  0.21920607  0.31322457  0.68804857     0.91800
C55         C  0.21366963  0.25230818  0.65182682     0.83900
C56         C  0.22667133  0.25693400  0.72610730     0.90200
O57         O  0.49996602  0.42987906  0.86748479    -0.73600
O58         O  0.49767025  0.44424802  0.81099943    -0.74600
O59         O  0.04354789  0.43866755  0.83862251    -0.63200
O60         O  0.45322969  0.43471380  0.83962991    -0.71600
O61         O  0.45318756  0.98675526  0.84547782    -0.71100
O62         O  0.04408155  0.98607192  0.84662633    -0.62400
O63         O  0.49975059  0.99285079  0.81749324    -0.74900
O64         O  0.49841109  0.98056453  0.87373604    -0.73700
Cu65       Cu  0.49856064  0.43518920  0.83896542     1.04600
Cu66       Cu  0.49863841  0.98842736  0.84587336     1.04300
C67         C  0.49898638  0.95393796  0.88066686     0.92600
C68         C  0.49993222  0.97027023  0.80631965     0.91800
C69         C  0.05812081  0.96113457  0.84481313     0.83900
C70         C  0.43867961  0.96204464  0.84362062     0.90200
O71         O  0.00164422  0.24721812  0.81743298    -0.73600
O72         O  0.99835374  0.26092161  0.87339257    -0.74600
O73         O  0.45417481  0.25289443  0.84458332    -0.63200
O74         O  0.04483132  0.25513585  0.84642352    -0.71600
O75         O  0.04394470  0.30448250  0.84156606    -0.71100
O76         O  0.45314493  0.30234898  0.84017861    -0.62400
O77         O  0.99778728  0.31036093  0.86892272    -0.74900
O78         O  0.00004119  0.29652852  0.81287816    -0.73700
Cu79       Cu  0.99964787  0.25233588  0.84559821     1.04600
Cu80       Cu  0.99857102  0.30513964  0.84071380     1.04300
C81         C  0.00210383  0.26977335  0.80630403     0.92600
C82         C  0.99832454  0.28773645  0.87998829     0.91800
C83         C  0.43933286  0.27729769  0.84219329     0.83900
C84         C  0.05868264  0.28009589  0.84420201     0.90200
O85         O  0.24554941  0.99569537  0.82024217    -0.73600
O86         O  0.24958963  0.98049933  0.87588517    -0.74600
O87         O  0.29336013  0.98783486  0.84724384    -0.63200
O88         O  0.20233592  0.98753591  0.84930080    -0.71600
O89         O  0.20183253  0.43795595  0.84167325    -0.71100
O90         O  0.29222606  0.43343005  0.84126125    -0.62400
O91         O  0.24733078  0.42828158  0.86993600    -0.74900
O92         O  0.24623108  0.44428121  0.81343721    -0.73700
Cu93       Cu  0.24776651  0.98958014  0.84833786     1.04600
Cu94       Cu  0.24688249  0.43425023  0.84141643     1.04300
C95         C  0.24562922  0.97388431  0.80854194     0.92600
C96         C  0.24994144  0.95371492  0.88241294     0.91800
C97         C  0.30766530  0.96308083  0.84480043     0.83900
C98         C  0.18839561  0.96265702  0.84676179     0.90200
O99         O  0.24485594  0.24925183  0.81739482    -0.73600
O100        O  0.25177503  0.25997844  0.87345222    -0.74600
O101        O  0.20335876  0.25577970  0.84723414    -0.63200
O102        O  0.29369692  0.25303868  0.84379263    -0.71600
O103        O  0.29481254  0.30270068  0.84037384    -0.71100
O104        O  0.20394914  0.30532455  0.84327311    -0.62400
O105        O  0.25224823  0.30961672  0.86984705    -0.74900
O106        O  0.24630494  0.29878882  0.81376378    -0.73700
Cu107      Cu  0.24843787  0.25280980  0.84559513     1.04600
Cu108      Cu  0.24942463  0.30584028  0.84169281     1.04300
C109        C  0.24397610  0.27237394  0.80672444     0.92600
C110        C  0.25295136  0.28648383  0.88047206     0.91800
C111        C  0.18933272  0.28075835  0.84544852     0.83900
C112        C  0.30856057  0.27746730  0.84184446     0.90200
O113        O  0.05404635  0.00101847  0.36970756    -0.73600
O114        O  0.04537334  0.99419241  0.31336405    -0.74600
O115        O  0.05043803  0.04370123  0.33957642    -0.63200
O116        O  0.04949812  0.45204019  0.34180406    -0.71600
O117        O  0.49974877  0.45514505  0.34529609    -0.71100
O118        O  0.49971533  0.04417770  0.34181934    -0.62400
O119        O  0.49777793  0.49567796  0.31471319    -0.74900
O120        O  0.50663640  0.50340584  0.37055854    -0.73700
Cu121      Cu  0.05155779  0.99814874  0.34138945     1.04600
Cu122      Cu  0.50075539  0.50012699  0.34271586     1.04300
C123        C  0.52932763  0.00168136  0.37979736     0.92600
C124        C  0.52101013  0.49228282  0.30439395     0.91800
C125        C  0.52472107  0.05833718  0.34041828     0.83900
C126        C  0.52367140  0.43920370  0.34417835     0.90200
O127        O  0.49834309  0.20365547  0.34101055    -0.73600
O128        O  0.49762361  0.29381771  0.34575137    -0.74600
O129        O  0.49466223  0.25309890  0.31507161    -0.63200
O130        O  0.50134367  0.24560631  0.37145389    -0.71600
O131        O  0.05200626  0.24730339  0.36928693    -0.71100
O132        O  0.04524334  0.25334584  0.31281093    -0.62400
O133        O  0.04799147  0.29502131  0.34270852    -0.74900
O134        O  0.04909991  0.20434130  0.33930022    -0.73700
Cu135      Cu  0.49628216  0.24887240  0.34335959     1.04600
Cu136      Cu  0.05032501  0.24987191  0.34094100     1.04300
C137        C  0.02427646  0.18967348  0.33979647     0.92600
C138        C  0.02291008  0.30881959  0.34477717     0.91800
C139        C  0.01919969  0.25543222  0.30513572     0.83900
C140        C  0.02813736  0.24623472  0.37928799     0.90200
O141        O  0.20228435  0.05604555  0.33898132    -0.73600
O142        O  0.19776121  0.46407454  0.34158804    -0.74600
O143        O  0.19057092  0.51232870  0.36783720    -0.63200
O144        O  0.20256242  0.50491885  0.31155792    -0.71600
O145        O  0.25209258  0.50792633  0.31562068    -0.71100
O146        O  0.24020054  0.51302207  0.37169973    -0.62400
O147        O  0.24738663  0.46588522  0.34533952    -0.74900
O148        O  0.25130939  0.05467930  0.34466707    -0.73700
Cu149      Cu  0.19493610  0.50898675  0.33938023     1.04600
Cu150      Cu  0.25120902  0.00947575  0.34612797     1.04300
C151        C  0.22728161  0.06982000  0.34167261     0.92600
C152        C  0.22305191  0.45070343  0.34377842     0.91800
C153        C  0.21367073  0.51294378  0.37867191     0.83900
C154        C  0.22925120  0.50439258  0.30482159     0.90200
O155        O  0.19480527  0.25926674  0.36717622    -0.73600
O156        O  0.21115711  0.26338137  0.31140901    -0.74600
O157        O  0.20402460  0.21568881  0.33793822    -0.63200
O158        O  0.20204132  0.30599105  0.34032871    -0.71600
O159        O  0.25134254  0.30661907  0.34579427    -0.71100
O160        O  0.25297424  0.21616350  0.34391983    -0.62400
O161        O  0.26036496  0.26403386  0.31674364    -0.74900
O162        O  0.24414279  0.26005011  0.37242499    -0.73700
Cu163      Cu  0.20132574  0.26091996  0.33900227     1.04600
Cu164      Cu  0.25392079  0.26158783  0.34487776     1.04300
C165        C  0.21709715  0.25965738  0.37860928     0.92600
C166        C  0.23816218  0.26552167  0.30527251     0.91800
C167        C  0.22864120  0.20145455  0.34091844     0.83900
C168        C  0.22642155  0.32054354  0.34334450     0.90200
O169        O  0.50707412  0.99967866  0.40992331    -0.73600
O170        O  0.51019048  0.99539317  0.46620749    -0.74600
O171        O  0.50797603  0.04293663  0.43913077    -0.63200
O172        O  0.51106970  0.45297593  0.43550719    -0.71600
O173        O  0.06159048  0.45274767  0.43471462    -0.71100
O174        O  0.05854050  0.04406837  0.43805319    -0.62400
O175        O  0.06365997  0.49654967  0.46405059    -0.74900
O176        O  0.06068448  0.49969972  0.40727361    -0.73700
Cu177      Cu  0.50700943  0.99743745  0.43802041     1.04600
Cu178      Cu  0.06395141  0.49804526  0.43562830     1.04300
C179        C  0.03230198  0.00121060  0.40035631     0.92600
C180        C  0.03914471  0.49606924  0.47347502     0.91800
C181        C  0.03328831  0.05790981  0.43864723     0.83900
C182        C  0.03646325  0.43863919  0.43496526     0.90200
O183        O  0.06299199  0.24864195  0.46450856    -0.73600
O184        O  0.05649271  0.24652683  0.40785367    -0.74600
O185        O  0.06043007  0.29309793  0.43538881    -0.63200
O186        O  0.05893649  0.20243587  0.43683375    -0.71600
O187        O  0.50872240  0.20301721  0.43883858    -0.71100
O188        O  0.50985895  0.29373869  0.43729983    -0.62400
O189        O  0.50591633  0.24697548  0.40991213    -0.74900
O190        O  0.51284737  0.24937207  0.46652418    -0.73700
Cu191      Cu  0.06143027  0.24767389  0.43608709     1.04600
Cu192      Cu  0.50760712  0.24833368  0.43824370     1.04300
C193        C  0.03906125  0.24920407  0.47447921     0.92600
C194        C  0.03052244  0.24647292  0.39996860     0.91800
C195        C  0.03569096  0.30789410  0.43598979     0.83900
C196        C  0.03373912  0.18858299  0.43796043     0.90200
O197        O  0.23414700  0.51256769  0.40953217    -0.73600
O198        O  0.22916614  0.50950016  0.46601815    -0.74600
O199        O  0.23154517  0.46549177  0.43669712    -0.63200
O200        O  0.22823551  0.05664831  0.44026610    -0.71600
O201        O  0.17835312  0.05600438  0.43773638    -0.71100
O202        O  0.18161112  0.46571593  0.43477205    -0.62400
O203        O  0.17928930  0.50940050  0.46450733    -0.74900
O204        O  0.18427458  0.51218894  0.40709338    -0.73700
Cu205      Cu  0.23310198  0.51108961  0.43776447     1.04600
Cu206      Cu  0.17975310  0.51086735  0.43564360     1.04300
C207        C  0.21034056  0.51276228  0.39937377     0.92600
C208        C  0.20364665  0.50865386  0.47430457     0.91800
C209        C  0.20650511  0.45126510  0.43547033     0.83900
C210        C  0.20308253  0.07066207  0.43886108     0.90200
O211        O  0.17919258  0.21572139  0.43400812    -0.73600
O212        O  0.18066870  0.30618761  0.43464602    -0.74600
O213        O  0.18547748  0.26101321  0.40598345    -0.63200
O214        O  0.17527043  0.25948572  0.46299092    -0.71600
O215        O  0.22475284  0.26105246  0.46578158    -0.71100
O216        O  0.23511152  0.25965162  0.40993834    -0.62400
O217        O  0.23049648  0.30587135  0.43739612    -0.74900
O218        O  0.22885647  0.21495617  0.43805595    -0.73700
Cu219      Cu  0.17837273  0.26078124  0.43428620     1.04600
Cu220      Cu  0.23144313  0.26041510  0.43792823     1.04300
C221        C  0.20375592  0.20108372  0.43608078     0.92600
C222        C  0.20569572  0.32038356  0.43584452     0.91800
C223        C  0.21214404  0.26003230  0.39910287     0.83900
C224        C  0.19883710  0.25908565  0.47346102     0.90200
O225        O  0.45509825  0.42081256  0.09504305    -0.73600
O226        O  0.04542931  0.42063514  0.09361077    -0.74600
O227        O  0.00092283  0.42415191  0.12254826    -0.63200
O228        O  0.99909143  0.41745084  0.06573726    -0.71600
O229        O  0.99983192  0.96809234  0.06581999    -0.71100
O230        O  0.00045625  0.97367523  0.12200881    -0.62400
O231        O  0.04559200  0.97272242  0.09398613    -0.74900
O232        O  0.45502133  0.96979701  0.09427440    -0.73700
Cu233      Cu  0.00021123  0.41895263  0.09428526     1.04600
Cu234      Cu  0.50034362  0.97291702  0.09372643     1.04300
C235        C  0.44046466  0.44552683  0.09394781     0.92600
C236        C  0.05970575  0.44556683  0.09272947     0.91800
C237        C  0.99992732  0.45032446  0.13006525     0.83900
C238        C  0.99884318  0.44138259  0.05572405     0.90200
O239        O  0.00576529  0.28218169  0.06374399    -0.73600
O240        O  0.00272780  0.27554999  0.12001359    -0.74600
O241        O  0.45855209  0.27999684  0.09100828    -0.63200
O242        O  0.04944693  0.27814143  0.09295809    -0.71600
O243        O  0.05015032  0.32801311  0.09537861    -0.71100
O244        O  0.45941078  0.32981801  0.09327552    -0.62400
O245        O  0.00334619  0.32533092  0.12272227    -0.74900
O246        O  0.00678021  0.33194723  0.06598299    -0.73700
Cu247      Cu  0.00408017  0.27718728  0.09182169     1.04600
Cu248      Cu  0.00488046  0.33044283  0.09440244     1.04300
C249        C  0.00712773  0.30803746  0.05592555     0.92600
C250        C  0.00289135  0.29919444  0.13026711     0.91800
C251        C  0.44462676  0.30518940  0.09187162     0.83900
C252        C  0.06405599  0.30283958  0.09443851     0.90200
O253        O  0.25266994  0.96767084  0.06686627    -0.73600
O254        O  0.25186166  0.97383772  0.12293224    -0.74600
O255        O  0.29754428  0.96933263  0.09544491    -0.63200
O256        O  0.20691874  0.97221901  0.09470319    -0.71600
O257        O  0.20496867  0.42005790  0.09510235    -0.71100
O258        O  0.29537874  0.42037486  0.09774665    -0.62400
O259        O  0.24852386  0.42613334  0.12443750    -0.74900
O260        O  0.25217592  0.41431194  0.06816386    -0.73700
Cu261      Cu  0.25227937  0.97243077  0.09490078     1.04600
Cu262      Cu  0.25022927  0.41848000  0.09648847     1.04300
C263        C  0.25283758  0.43736263  0.05742393     0.92600
C264        C  0.24884542  0.45285908  0.13115627     0.91800
C265        C  0.30992145  0.44499141  0.09575508     0.83900
C266        C  0.19070753  0.44490395  0.09325362     0.90200
O267        O  0.25071907  0.32871678  0.06580300    -0.73600
O268        O  0.25531749  0.32458010  0.12247964    -0.74600
O269        O  0.29843327  0.32857876  0.09283129    -0.63200
O270        O  0.20816949  0.32575429  0.09529494    -0.71600
O271        O  0.20906166  0.27580087  0.09364581    -0.71100
O272        O  0.30016922  0.27870409  0.09137046    -0.62400
O273        O  0.25647906  0.27469879  0.12049591    -0.74900
O274        O  0.25248575  0.27887047  0.06441546    -0.73700
Cu275      Cu  0.25316230  0.32864006  0.09416273     1.04600
Cu276      Cu  0.25465029  0.27528745  0.09243655     1.04300
C277        C  0.25069089  0.30433281  0.05619116     0.92600
C278        C  0.25619442  0.29871009  0.13036464     0.91800
C279        C  0.31364204  0.30419946  0.09179087     0.83900
C280        C  0.19436070  0.30055426  0.09469419     0.90200
O281        O  0.50405059  0.99159358  0.21511752    -0.73600
O282        O  0.50285688  0.97991279  0.15936179    -0.74600
O283        O  0.45794258  0.98860641  0.18666107    -0.63200
O284        O  0.04804180  0.98118861  0.18758278    -0.71600
O285        O  0.04411328  0.43690586  0.18954026    -0.71100
O286        O  0.45298886  0.43733259  0.18906876    -0.62400
O287        O  0.49903322  0.43104788  0.16111797    -0.74900
O288        O  0.49880892  0.44353800  0.21748839    -0.73700
Cu289      Cu  0.50328252  0.98730473  0.18701248     1.04600
Cu290      Cu  0.49864266  0.43547724  0.18942272     1.04300
C291        C  0.50090541  0.47008901  0.22437562     0.92600
C292        C  0.49896741  0.45411592  0.15039223     0.91800
C293        C  0.43891151  0.46236918  0.18746902     0.83900
C294        C  0.05825815  0.46163531  0.18691066     0.90200
O295        O  0.00527979  0.30569833  0.21824926    -0.73600
O296        O  0.00338107  0.31880593  0.16170727    -0.74600
O297        O  0.45916329  0.31157113  0.19021847    -0.63200
O298        O  0.04951805  0.31415358  0.18970260    -0.71600
O299        O  0.05103780  0.26486849  0.18459953    -0.71100
O300        O  0.46032051  0.26195687  0.18683496    -0.62400
O301        O  0.00357943  0.26923089  0.15780797    -0.74900
O302        O  0.00832121  0.25658564  0.21352179    -0.73700
Cu303      Cu  0.00423624  0.31425325  0.19014058     1.04600
Cu304      Cu  0.00578153  0.26144283  0.18553303     1.04300
C305        C  0.00764360  0.27891823  0.22480952     0.92600
C306        C  0.00313860  0.29575094  0.15088868     0.91800
C307        C  0.44538014  0.28644464  0.18870235     0.83900
C308        C  0.06457421  0.29000108  0.18706330     0.90200
O309        O  0.24827406  0.45135477  0.21876421    -0.73600
O310        O  0.24790073  0.43538577  0.16282406    -0.74600
O311        O  0.29332480  0.44222208  0.19071458    -0.63200
O312        O  0.20292195  0.44342766  0.19070256    -0.71600
O313        O  0.20367621  0.98425721  0.18819242    -0.71100
O314        O  0.29440380  0.99047280  0.18708379    -0.62400
O315        O  0.24874182  0.98056420  0.16025025    -0.74900
O316        O  0.24863853  0.99561054  0.21560941    -0.73700
Cu317      Cu  0.24810913  0.44143358  0.19096104     1.04600
Cu318      Cu  0.24880149  0.98940361  0.18768913     1.04300
C319        C  0.24677845  0.47831231  0.22507768     0.92600
C320        C  0.24859189  0.45777914  0.15157423     0.91800
C321        C  0.30799827  0.46663437  0.18838211     0.83900
C322        C  0.18848009  0.46781539  0.18758970     0.90200
O323        O  0.25245090  0.25986087  0.21426216    -0.73600
O324        O  0.25579706  0.26975271  0.15827775    -0.74600
O325        O  0.29953155  0.26338995  0.18719152    -0.63200
O326        O  0.20903482  0.26625922  0.18524875    -0.71600
O327        O  0.21007369  0.31582107  0.18910859    -0.71100
O328        O  0.30081948  0.31314612  0.18996458    -0.62400
O329        O  0.25621383  0.31950399  0.16132920    -0.74900
O330        O  0.25443243  0.30946576  0.21766493    -0.73700
Cu331      Cu  0.25420529  0.26312497  0.18611737     1.04600
Cu332      Cu  0.25549021  0.31623529  0.18963550     1.04300
C333        C  0.25260128  0.28312598  0.22483350     0.92600
C334        C  0.25623751  0.29599837  0.15094752     0.91800
C335        C  0.31449894  0.28786295  0.18871064     0.83900
C336        C  0.19522369  0.29135018  0.18712862     0.90200
O337        O  0.99757886  0.41609658  0.96402921    -0.73600
O338        O  0.00032219  0.42290753  0.90688588    -0.74600
O339        O  0.04405459  0.41470132  0.93673677    -0.63200
O340        O  0.45428018  0.42297232  0.93439954    -0.71600
O341        O  0.45771138  0.97300980  0.93976943    -0.71100
O342        O  0.04856139  0.96778988  0.93950446    -0.62400
O343        O  0.00231810  0.97355517  0.91164516    -0.74900
O344        O  0.00338381  0.96753505  0.96792429    -0.73700
Cu345      Cu  0.99895816  0.41764111  0.93540876     1.04600
Cu346      Cu  0.00312607  0.97200872  0.93979933     1.04300
C347        C  0.00222593  0.94189615  0.97600214     0.92600
C348        C  0.00051638  0.95001759  0.90145282     0.91800
C349        C  0.06172927  0.94215566  0.93864600     0.83900
C350        C  0.44235132  0.94867515  0.93884181     0.90200
O351        O  0.00096743  0.31900430  0.90735345    -0.73600
O352        O  0.00721552  0.33020767  0.96373939    -0.74600
O353        O  0.04927488  0.32331162  0.93393766    -0.63200
O354        O  0.45868948  0.32626057  0.93717465    -0.71600
O355        O  0.45758324  0.27663688  0.94065658    -0.71100
O356        O  0.04821965  0.27374084  0.93781961    -0.62400
O357        O  0.00569717  0.28065565  0.96722196    -0.74900
O358        O  0.00019252  0.26945439  0.91130167    -0.75300
Cu359      Cu  0.00405481  0.32643561  0.93540240     1.04600
Cu360      Cu  0.00287596  0.27343573  0.93937916     1.04300
C361        C  0.99969100  0.29236183  0.90049114     0.92600
C362        C  0.00756444  0.30701413  0.97437923     0.91800
C363        C  0.06303928  0.29814523  0.93558968     0.83900
C364        C  0.44380770  0.30184724  0.93927357     0.90200
O365        O  0.20543377  0.96614835  0.94162153    -0.73600
O366        O  0.29617075  0.97271592  0.94096000    -0.74600
O367        O  0.24982331  0.97312653  0.91335068    -0.63200
O368        O  0.25172241  0.96643715  0.96939233    -0.71600
O369        O  0.25564506  0.41139780  0.96584333    -0.71100
O370        O  0.25050177  0.42004873  0.90905641    -0.62400
O371        O  0.29813975  0.42019867  0.93615094    -0.74900
O372        O  0.20796860  0.41155972  0.93907873    -0.73700
Cu373      Cu  0.25064494  0.97127797  0.94141061     1.04600
Cu374      Cu  0.25321854  0.41405144  0.93739252     1.04300
C375        C  0.19267300  0.94033936  0.94068345     0.92600
C376        C  0.31186969  0.94864549  0.93960556     0.91800
C377        C  0.25081208  0.94968270  0.90297894     0.83900
C378        C  0.25364467  0.43484608  0.97623103     0.90200
O379        O  0.25399616  0.31666519  0.90821424    -0.73600
O380        O  0.25002113  0.32570786  0.96455094    -0.74600
O381        O  0.29751994  0.32328576  0.93768287    -0.63200
O382        O  0.20734987  0.31987139  0.93510866    -0.71600
O383        O  0.20830375  0.27019269  0.93847959    -0.71100
O384        O  0.29951838  0.27357125  0.94036201    -0.62400
O385        O  0.25219299  0.27603497  0.96741525    -0.74900
O386        O  0.25502701  0.26695991  0.91143578    -0.73700
Cu387      Cu  0.25225651  0.32307982  0.93627962     1.04600
Cu388      Cu  0.25391648  0.26994049  0.93953133     1.04300
C389        C  0.25432218  0.29026777  0.90097980     0.92600
C390        C  0.25020022  0.30215045  0.97485758     0.91800
C391        C  0.31287451  0.29907965  0.93932056     0.83900
C392        C  0.19353883  0.29477280  0.93654475     0.90200
O393        O  0.06147233  0.99504984  0.62256184    -0.73600
O394        O  0.06400345  0.99252903  0.56529519    -0.74600
O395        O  0.06270717  0.03848572  0.59297211    -0.63200
O396        O  0.06545191  0.44752952  0.59363533    -0.71600
O397        O  0.51585469  0.44713796  0.59194764    -0.71100
O398        O  0.51326187  0.03791883  0.59257647    -0.62400
O399        O  0.51702361  0.49195021  0.56348287    -0.74900
O400        O  0.51419925  0.49322115  0.61971666    -0.73700
Cu401      Cu  0.06480629  0.99356386  0.59388182     1.04600
Cu402      Cu  0.51420443  0.49256316  0.59158362     1.04300
C403        C  0.03569040  0.99511410  0.63067581     0.92600
C404        C  0.04207287  0.49206062  0.55502377     0.91800
C405        C  0.03775990  0.05283024  0.59272288     0.83900
C406        C  0.04042170  0.43334565  0.59294719     0.90200
O407        O  0.06253846  0.24234656  0.62305337    -0.73600
O408        O  0.06717437  0.24458318  0.56584596    -0.74600
O409        O  0.06525212  0.28850990  0.59509576    -0.63200
O410        O  0.06504512  0.19810457  0.59348846    -0.71600
O411        O  0.51530329  0.19763655  0.59239601    -0.71100
O412        O  0.51561018  0.28823945  0.59294226    -0.62400
O413        O  0.51740304  0.24361576  0.56445517    -0.74900
O414        O  0.51293985  0.24266636  0.62086780    -0.73700
Cu415      Cu  0.06678569  0.24331501  0.59445175     1.04600
Cu416      Cu  0.51364807  0.24298088  0.59262098     1.04300
C417        C  0.03658117  0.24286204  0.63092437     0.92600
C418        C  0.04271837  0.24498872  0.55621031     0.91800
C419        C  0.04034569  0.30291343  0.59405204     0.83900
C420        C  0.04008147  0.18377899  0.59278123     0.90200
O421        O  0.18344213  0.04914155  0.59654077    -0.73600
O422        O  0.18593870  0.45934404  0.59567778    -0.74600
O423        O  0.18971210  0.50509569  0.62396819    -0.63200
O424        O  0.18295274  0.50433315  0.56679168    -0.71600
O425        O  0.22960928  0.00410590  0.56552770    -0.71100
O426        O  0.23955691  0.50469750  0.62170381    -0.62400
O427        O  0.23583595  0.45867440  0.59353590    -0.74900
O428        O  0.23325875  0.05014268  0.59360476    -0.73700
Cu429      Cu  0.18454067  0.50464979  0.59548823     1.04600
Cu430      Cu  0.23587496  0.00475191  0.59380286     1.04300
C431        C  0.20801565  0.06391718  0.59501360     0.92600
C432        C  0.21069652  0.44467468  0.59470376     0.91800
C433        C  0.21575800  0.50505027  0.63182191     0.83900
C434        C  0.20684139  0.50416543  0.55671144     0.90200
O435        O  0.23416322  0.25221070  0.62091887    -0.73600
O436        O  0.22631793  0.25568829  0.56447466    -0.74600
O437        O  0.23134583  0.29908420  0.59370462    -0.63200
O438        O  0.22957546  0.20844848  0.59173559    -0.71600
O439        O  0.17983624  0.20882784  0.59507570    -0.71100
O440        O  0.18140802  0.29992138  0.59518783    -0.62400
O441        O  0.17689827  0.25409600  0.56648111    -0.74900
O442        O  0.18435613  0.25400212  0.62347954    -0.73700
Cu443      Cu  0.23199783  0.25382005  0.59260870     1.04600
Cu444      Cu  0.17885408  0.25429973  0.59512625     1.04300
C445        C  0.21051127  0.25273996  0.63112734     0.92600
C446        C  0.20061662  0.25486121  0.55630116     0.91800
C447        C  0.20666978  0.31385661  0.59465789     0.83900
C448        C  0.20461117  0.19432843  0.59341758     0.90200
C449        C  0.19203678  0.39569997  0.58150791    -0.02500
C450        C  0.20999545  0.41121760  0.59472798     0.07200
C451        C  0.22683551  0.39465326  0.60801777    -0.02600
C452        C  0.22559295  0.36286145  0.60811581    -0.02600
C453        C  0.20748669  0.34734770  0.59492026     0.07300
C454        C  0.19085632  0.36396616  0.58157692    -0.02800
Br455      Br  0.16801962  0.34330896  0.56244840    -0.01300
Br456      Br  0.17030494  0.41784009  0.56248585    -0.01400
Br457      Br  0.24792140  0.34070332  0.62686357    -0.01400
Br458      Br  0.25063655  0.41547555  0.62668130    -0.01400
C459        C  0.21602902  0.14461013  0.57827978    -0.02500
C460        C  0.20459408  0.16092660  0.59366232     0.07200
C461        C  0.19394786  0.14521732  0.60948273    -0.02600
C462        C  0.19486810  0.11345891  0.60989937    -0.02600
C463        C  0.20709787  0.09724560  0.59468356     0.07300
C464        C  0.21779222  0.11294619  0.57890945    -0.02800
Br465      Br  0.23375776  0.09100543  0.55776025    -0.01300
Br466      Br  0.22731657  0.16543539  0.55575332    -0.01400
Br467      Br  0.18049210  0.09224510  0.63169197    -0.01400
Br468      Br  0.17930193  0.16719497  0.63096348    -0.01400
C469        C  0.02274174  0.38430398  0.60645339    -0.02500
C470        C  0.04043216  0.39996341  0.59326040     0.07200
C471        C  0.55885738  0.38300927  0.58046556    -0.02600
C472        C  0.55881017  0.35128383  0.58076982    -0.02600
C473        C  0.04054083  0.33624454  0.59390273     0.07300
C474        C  0.02278463  0.35257041  0.60676405    -0.02800
Br475      Br  0.99945827  0.33153946  0.62542833    -0.01300
Br476      Br  0.99952636  0.40621579  0.62481656    -0.01400
Br477      Br  0.58191847  0.32926802  0.56238392    -0.01400
Br478      Br  0.58238591  0.40379136  0.56178465    -0.01400
C479        C  0.55922759  0.13332647  0.60462668    -0.02500
C480        C  0.04001899  0.15027453  0.59243541     0.07200
C481        C  0.02044484  0.13455144  0.58018980    -0.02600
C482        C  0.01893790  0.10282618  0.58066824    -0.02600
C483        C  0.03815885  0.08633977  0.59272794     0.07300
C484        C  0.55865717  0.10159613  0.60462596    -0.02800
Br485      Br  0.58464069  0.08009251  0.62185123    -0.01300
Br486      Br  0.58538873  0.15402382  0.62210827    -0.01400
Br487      Br  0.99123461  0.08226062  0.56405419    -0.01400
Br488      Br  0.99746628  0.15617823  0.56147964    -0.01400
C489        C  0.39472248  0.28802591  0.95446259    -0.02500
C490        C  0.41033713  0.30256440  0.93984686     0.07200
C491        C  0.39382521  0.31694279  0.92546701    -0.02600
C492        C  0.36201460  0.31647454  0.92559401    -0.02600
C493        C  0.34637715  0.30072310  0.93975030     0.07300
C494        C  0.36291389  0.28671408  0.95427555    -0.02800
Br495      Br  0.34208615  0.26686524  0.97449250    -0.01300
Br496      Br  0.41688100  0.27130915  0.97536066    -0.01400
Br497      Br  0.34007029  0.33638089  0.90572014    -0.01400
Br498      Br  0.41463923  0.33559188  0.90477358    -0.01400
C499        C  0.14446219  0.31357955  0.94895516    -0.02500
C500        C  0.16015905  0.29472743  0.93639862     0.07200
C501        C  0.14387428  0.27702377  0.92341835    -0.02600
C502        C  0.11207623  0.27841194  0.92293507    -0.02600
C503        C  0.09642896  0.29735942  0.93549439     0.07300
C504        C  0.11278449  0.31501081  0.94845338    -0.02800
Br505      Br  0.09190812  0.34023960  0.96624428    -0.01300
Br506      Br  0.16625851  0.33628364  0.96769517    -0.01400
Br507      Br  0.09006565  0.25560644  0.90434680    -0.01400
Br508      Br  0.16505938  0.25184858  0.90573882    -0.01400
C509        C  0.36108825  0.42600627  0.94821807    -0.02500
C510        C  0.34521351  0.95016666  0.93976370     0.07200
C511        C  0.36088627  0.96589406  0.92566725    -0.02600
C512        C  0.39272585  0.96557636  0.92535673    -0.02600
C513        C  0.40899354  0.94980300  0.93926006     0.07300
C514        C  0.39274663  0.42677234  0.94789625    -0.02800
Br515      Br  0.41469410  0.39691523  0.96213669    -0.01300
Br516      Br  0.34145450  0.39512600  0.96279404    -0.01400
Br517      Br  0.41396053  0.98476033  0.90506668    -0.01400
Br518      Br  0.33876171  0.98647967  0.90619516    -0.01400
C519        C  0.14333148  0.92145042  0.92737317    -0.02500
C520        C  0.15918772  0.93844963  0.94097351     0.07200
C521        C  0.14182267  0.45203118  0.95370094    -0.02600
C522        C  0.11005144  0.45296469  0.95295305    -0.02600
C523        C  0.09522810  0.94038035  0.93951727     0.07300
C524        C  0.11151048  0.92267772  0.92652370    -0.02800
Br525      Br  0.09056992  0.90155001  0.90669429    -0.01300
Br526      Br  0.16496033  0.89705982  0.90943401    -0.01400
Br527      Br  0.08851194  0.47748528  0.97089346    -0.01400
Br528      Br  0.16276157  0.47561964  0.97247666    -0.01400
C529        C  0.39553928  0.27033425  0.17501922    -0.02500
C530        C  0.41187441  0.28597313  0.18901249     0.07200
C531        C  0.39600097  0.30205668  0.20297427    -0.02600
C532        C  0.36420867  0.30199964  0.20313427    -0.02600
C533        C  0.34793893  0.28694550  0.18891918     0.07300
C534        C  0.36374160  0.27129573  0.17478422    -0.02800
Br535      Br  0.34199490  0.25291607  0.15423243    -0.01300
Br536      Br  0.41649847  0.24895250  0.15538328    -0.01400
Br537      Br  0.34300386  0.32122864  0.22351911    -0.01400
Br538      Br  0.41756027  0.32357650  0.22239588    -0.01400
C539        C  0.11366669  0.31150178  0.17575428    -0.02500
C540        C  0.09795351  0.29100094  0.18724187     0.07200
C541        C  0.11422947  0.27162100  0.19921351    -0.02600
C542        C  0.14597868  0.27172994  0.19910787    -0.02600
C543        C  0.16178275  0.29180327  0.18735853     0.07300
C544        C  0.14547295  0.31213160  0.17595709    -0.02800
Br545      Br  0.16648047  0.34018944  0.16000479    -0.01300
Br546      Br  0.09175688  0.33793289  0.15908318    -0.01400
Br547      Br  0.16763711  0.24539359  0.21599413    -0.01400
Br548      Br  0.09306330  0.24639199  0.21685751    -0.01400
C549        C  0.38843454  0.44583539  0.17478515    -0.02500
C550        C  0.40539459  0.46311062  0.18768843     0.07200
C551        C  0.39244198  0.99255636  0.19410123    -0.02600
C552        C  0.36060984  0.99295995  0.19436101    -0.02600
C553        C  0.34146684  0.46565670  0.18799292     0.07300
C554        C  0.35659777  0.44703419  0.17497609    -0.02800
Br555      Br  0.33377333  0.42386868  0.15690288    -0.01300
Br556      Br  0.40871593  0.42170172  0.15614489    -0.01400
Br557      Br  0.34039865  0.02816115  0.20417114    -0.01400
Br558      Br  0.41371156  0.02768123  0.20322244    -0.01400
C559        C  0.10967148  0.97281116  0.17522428    -0.02500
C560        C  0.09154328  0.46218947  0.18673356     0.07200
C561        C  0.10788598  0.45280435  0.20261817    -0.02600
C562        C  0.13949514  0.45525737  0.20295522    -0.02600
C563        C  0.15508242  0.46712996  0.18743816     0.07300
C564        C  0.14137506  0.97419455  0.17579939    -0.02800
Br565      Br  0.16177733  0.00090012  0.15858578    -0.01300
Br566      Br  0.08817126  0.99645504  0.15669595    -0.01400
Br567      Br  0.16112124  0.44428799  0.22534688    -0.01400
Br568      Br  0.08697129  0.43808253  0.22441219    -0.01400
C569        C  0.22843334  0.28670805  0.02550024    -0.02500
C570        C  0.24889757  0.30539634  0.03536983     0.07200
C571        C  0.26834278  0.32441261  0.02517747    -0.02600
C572        C  0.26810867  0.32408533  0.00544758    -0.02600
C573        C  0.24835066  0.30481044  0.99559339     0.07300
C574        C  0.22784828  0.28681302  0.00573458    -0.02800
Br575      Br  0.19768047  0.26346082  0.99257259    -0.01300
Br576      Br  0.20061824  0.26116048  0.03889336    -0.01400
Br577      Br  0.29649519  0.34874546  0.99207357    -0.01400
Br578      Br  0.29742954  0.34913765  0.03806676    -0.01400
C579        C  0.27497157  0.95811151  0.02805708    -0.02500
C580        C  0.25459272  0.43363749  0.03674261     0.07200
C581        C  0.23106437  0.41935012  0.02677442    -0.02600
C582        C  0.23139808  0.41851102  0.00699303    -0.02600
C583        C  0.25508192  0.43224513  0.99699226     0.07300
C584        C  0.27522488  0.95786720  0.00828815    -0.02800
Br585      Br  0.30394238  0.98278816  0.99516887    -0.01300
Br586      Br  0.30406808  0.98259589  0.04137870    -0.01400
Br587      Br  0.19834625  0.40030353  0.99357208    -0.01400
Br588      Br  0.19714602  0.40305228  0.04017366    -0.01400
C589        C  0.39509076  0.29071297  0.07708901    -0.02500
C590        C  0.41111381  0.30580566  0.09143455     0.07200
C591        C  0.39496857  0.32133565  0.10547233    -0.02600
C592        C  0.36315578  0.32163599  0.10523222    -0.02600
C593        C  0.34712559  0.30553387  0.09130958     0.07300
C594        C  0.36325074  0.29047761  0.07707341    -0.02800
Br595      Br  0.34173344  0.27106942  0.05681702    -0.01300
Br596      Br  0.41667151  0.27146026  0.05688711    -0.01400
Br597      Br  0.34172735  0.34334888  0.12452776    -0.01400
Br598      Br  0.41627944  0.34043127  0.12593651    -0.01400
C599        C  0.14484530  0.28652495  0.10923764    -0.02500
C600        C  0.16103713  0.30045549  0.09467093     0.07200
C601        C  0.14531788  0.31535829  0.08020284    -0.02600
C602        C  0.11363266  0.31675640  0.08040607    -0.02600
C603        C  0.09737185  0.30231489  0.09473667     0.07300
C604        C  0.11303235  0.28708273  0.10912574    -0.02800
Br605      Br  0.09090860  0.26807555  0.12910518    -0.01300
Br606      Br  0.16623442  0.26809798  0.12982565    -0.01400
Br607      Br  0.09256210  0.33770494  0.06063289    -0.01400
Br608      Br  0.16714976  0.33255788  0.05949624    -0.01400
C609        C  0.49045975  0.32981404  0.00512070    -0.02500
C610        C  0.00992283  0.31020582  0.99517537     0.07200
C611        C  0.03036797  0.29204380  0.00537246    -0.02600
C612        C  0.02993061  0.29185854  0.02515224    -0.02600
C613        C  0.00917524  0.31004656  0.03507103     0.07300
C614        C  0.48981804  0.32952996  0.02489718    -0.02800
Br615      Br  0.46066748  0.35413447  0.03779078    -0.01300
Br616      Br  0.46351079  0.35619288  0.99177081    -0.01400
Br617      Br  0.05867591  0.26719392  0.03856446    -0.01400
Br618      Br  0.06029934  0.26848820  0.99225727    -0.01400
C619        C  0.39068881  0.42368536  0.08441088    -0.02500
C620        C  0.40710643  0.44506080  0.09494343     0.07200
C621        C  0.39252069  0.96002368  0.11024359    -0.02600
C622        C  0.36073127  0.95949062  0.11069804    -0.02600
C623        C  0.34332196  0.44463260  0.09599571     0.07300
C624        C  0.35903470  0.42338027  0.08502278    -0.02800
Br625      Br  0.33745467  0.39456083  0.06985973    -0.01300
Br626      Br  0.41115665  0.39544276  0.06825854    -0.01400
Br627      Br  0.33945098  0.97988855  0.13059265    -0.01400
Br628      Br  0.41442441  0.98241584  0.12908865    -0.01400
C629        C  0.11030014  0.93463290  0.11022210    -0.02500
C630        C  0.09320357  0.44548944  0.09287301     0.07200
C631        C  0.10941764  0.46216092  0.07942518    -0.02600
C632        C  0.14122368  0.46173840  0.07942747    -0.02600
C633        C  0.15718518  0.44501506  0.09306546     0.07300
C634        C  0.14209460  0.93402644  0.11017507    -0.02800
Br635      Br  0.16335889  0.91422123  0.13033933    -0.01300
Br636      Br  0.08864565  0.91679479  0.13085347    -0.01400
Br637      Br  0.16270635  0.48288893  0.05996646    -0.01400
Br638      Br  0.08820722  0.48452030  0.06027389    -0.01400
C639        C  0.97858213  0.95628132  0.00678232    -0.02500
C640        C  0.00132970  0.94060735  0.99691230     0.07200
C641        C  0.52087938  0.42299523  0.00511802    -0.02600
C642        C  0.52076187  0.42372905  0.02492273    -0.02600
C643        C  0.00066721  0.94087958  0.03682214     0.07300
C644        C  0.97783312  0.95577561  0.02655261    -0.02800
Br645      Br  0.94467369  0.97468782  0.03954826    -0.01300
Br646      Br  0.94802901  0.97848983  0.99327438    -0.01400
Br647      Br  0.55352457  0.40555981  0.03869004    -0.01400
Br648      Br  0.55341496  0.40332878  0.99210629    -0.01400
C649        C  0.17180111  0.26515734  0.50519650    -0.02500
C650        C  0.19710691  0.25571709  0.49456057     0.07200
C651        C  0.22180213  0.24285675  0.50438235    -0.02600
C652        C  0.22356164  0.24404965  0.52413812    -0.02600
C653        C  0.19873748  0.25444826  0.53500090     0.07300
C654        C  0.17226649  0.26372783  0.52512097    -0.02800
Br655      Br  0.13601150  0.27526995  0.53832390    -0.01300
Br656      Br  0.13585421  0.28001418  0.49284511    -0.01400
Br657      Br  0.26100444  0.23066805  0.53552388    -0.01400
Br658      Br  0.25217677  0.21975298  0.49110730    -0.01400
C659        C  0.18734405  0.37022882  0.44797608    -0.02500
C660        C  0.20584413  0.35387717  0.43552032     0.07200
C661        C  0.22409856  0.36967983  0.42265105    -0.02600
C662        C  0.22390697  0.40149670  0.42234451    -0.02600
C663        C  0.20608362  0.41779493  0.43522075     0.07300
C664        C  0.18753618  0.40197013  0.44788343    -0.02800
Br665      Br  0.16308512  0.42363615  0.46577293    -0.01300
Br666      Br  0.16274204  0.34926831  0.46598604    -0.01400
Br667      Br  0.24630008  0.42264883  0.40329669    -0.01400
Br668      Br  0.24838894  0.34786240  0.40476846    -0.01400
C669        C  0.21923656  0.15092612  0.42312891    -0.02500
C670        C  0.20295549  0.16780450  0.43643311     0.07200
C671        C  0.18540626  0.15280780  0.44993655    -0.02600
C672        C  0.18531880  0.12111098  0.45068999    -0.02600
C673        C  0.20264995  0.10409727  0.43793066     0.07300
C674        C  0.21890025  0.11917663  0.42377933    -0.02800
Br675      Br  0.23865105  0.09641186  0.40429593    -0.01300
Br676      Br  0.24035647  0.17134223  0.40324831    -0.01400
Br677      Br  0.16187656  0.10133919  0.46958859    -0.01400
Br678      Br  0.16205164  0.17569708  0.46783772    -0.01400
C679        C  0.22066464  0.48481304  0.50486985    -0.02500
C680        C  0.20280015  0.50648878  0.49538715     0.07200
C681        C  0.17568502  0.01870855  0.50756748    -0.02600
C682        C  0.17775276  0.01894411  0.52741777    -0.02600
C683        C  0.20466439  0.50440996  0.53560127     0.07300
C684        C  0.22155634  0.48376728  0.52472090    -0.02800
Br685      Br  0.24500237  0.45279563  0.53696774    -0.01300
Br686      Br  0.24307392  0.45528702  0.49066518    -0.01400
Br687      Br  0.15052866  0.04424554  0.54149434    -0.01400
Br688      Br  0.14252917  0.03920787  0.49579880    -0.01400
C689        C  0.52599562  0.27045129  0.50616241    -0.02500
C690        C  0.04131431  0.24892176  0.49539500     0.07200
C691        C  0.05819035  0.22636697  0.50472813    -0.02600
C692        C  0.05946870  0.22554847  0.52454035    -0.02600
C693        C  0.04349086  0.24696343  0.53530612     0.07300
C694        C  0.52708977  0.26937959  0.52593986    -0.02800
Br695      Br  0.50670123  0.30013111  0.54029876    -0.01300
Br696      Br  0.50441938  0.30275485  0.49393530    -0.01400
Br697      Br  0.08165419  0.19382660  0.53690274    -0.01400
Br698      Br  0.07775490  0.19502579  0.49044371    -0.01400
C699        C  0.05296382  0.38932656  0.44868424    -0.02500
C700        C  0.03636161  0.40518204  0.43495430     0.07200
C701        C  0.51903398  0.38867163  0.42130892    -0.02600
C702        C  0.51893846  0.35685539  0.42154626    -0.02600
C703        C  0.03625553  0.34131933  0.43538431     0.07300
C704        C  0.05305089  0.35758305  0.44882577    -0.02800
Br705      Br  0.07528632  0.33642793  0.46803289    -0.01300
Br706      Br  0.07428576  0.41100752  0.46810653    -0.01400
Br707      Br  0.49746965  0.33494250  0.40228387    -0.01400
Br708      Br  0.49737184  0.40989056  0.40186066    -0.01400
C709        C  0.54873287  0.10679834  0.42447254    -0.02500
C710        C  0.03286688  0.09134604  0.43839317     0.07200
C711        C  0.01633989  0.10768815  0.45189652    -0.02600
C712        C  0.01690981  0.13945606  0.45191209    -0.02600
C713        C  0.03320287  0.15517527  0.43806118     0.07300
C714        C  0.54855122  0.13853286  0.42412051    -0.02800
Br715      Br  0.56806432  0.15942627  0.40375019    -0.01300
Br716      Br  0.57016959  0.08502946  0.40517853    -0.01400
Br717      Br  0.99664631  0.16129991  0.47162862    -0.01400
Br718      Br  0.99373619  0.08674777  0.47092040    -0.01400
C719        C  0.52499844  0.47123174  0.50403601    -0.02500
C720        C  0.04023198  0.49475594  0.49433779     0.07200
C721        C  0.04992943  0.01868211  0.50569196    -0.02600
C722        C  0.05103904  0.01768812  0.52545179    -0.02600
C723        C  0.04232845  0.49237754  0.53414207     0.07300
C724        C  0.52634159  0.46990098  0.52379835    -0.02800
Br725      Br  0.50659128  0.43730086  0.53676980    -0.01300
Br726      Br  0.50289945  0.44076054  0.49037804    -0.01400
Br727      Br  0.06632316  0.05181883  0.53926679    -0.01400
Br728      Br  0.06330644  0.05430141  0.49270443    -0.01400
C729        C  0.22515907  0.29205941  0.27509839    -0.02500
C730        C  0.24330932  0.27090214  0.28481223     0.07200
C731        C  0.26599255  0.25530506  0.27477808    -0.02600
C732        C  0.26931428  0.25961251  0.25527473    -0.02600
C733        C  0.25002178  0.27949991  0.24550588     0.07300
C734        C  0.22791128  0.29567255  0.25554831    -0.02800
Br735      Br  0.19977530  0.32143643  0.24241049    -0.01300
Br736      Br  0.19805634  0.31829241  0.28864232    -0.01400
Br737      Br  0.30105912  0.23879775  0.24200088    -0.01400
Br738      Br  0.29259495  0.22760948  0.28738683    -0.01400
C739        C  0.24601630  0.40197748  0.33319370    -0.02500
C740        C  0.22427632  0.41739630  0.34406128     0.07200
C741        C  0.20335219  0.40079372  0.35478675    -0.02600
C742        C  0.20447283  0.36911268  0.35486505    -0.02600
C743        C  0.22585257  0.35378649  0.34377402     0.07300
C744        C  0.24646591  0.37030689  0.33284552    -0.02800
Br745      Br  0.27412881  0.34968742  0.31629554    -0.01300
Br746      Br  0.27435546  0.42381700  0.31776292    -0.01400
Br747      Br  0.17758336  0.34685280  0.37098746    -0.01400
Br748      Br  0.17364462  0.42114808  0.37001988    -0.01400
C749        C  0.20420197  0.12011468  0.34976724    -0.02500
C750        C  0.22819503  0.10350091  0.34175226     0.07200
C751        C  0.25318700  0.11935417  0.33435176    -0.02600
C752        C  0.25338393  0.15115746  0.33406790    -0.02600
C753        C  0.22871575  0.16775899  0.34128170     0.07300
C754        C  0.20430756  0.15189369  0.34938272    -0.02800
Br755      Br  0.17145711  0.17326555  0.36129806    -0.01300
Br756      Br  0.17215366  0.09974607  0.36305180    -0.01400
Br757      Br  0.28754118  0.17143319  0.32305586    -0.01400
Br758      Br  0.28760352  0.09811592  0.32426065    -0.01400
C759        C  0.22547480  0.46989271  0.27703939    -0.02500
C760        C  0.23380125  0.49808237  0.28451482     0.07200
C761        C  0.25582633  0.01455524  0.27473897    -0.02600
C762        C  0.25982001  0.00722501  0.25561307    -0.02600
C763        C  0.24409399  0.48450000  0.24585419     0.07300
C764        C  0.23210389  0.46243003  0.25825244    -0.02800
Br765      Br  0.22520011  0.42116364  0.25056509    -0.01300
Br766      Br  0.20455398  0.44119305  0.29264461    -0.01400
Br767      Br  0.28351616  0.03421736  0.24042980    -0.01400
Br768      Br  0.27269419  0.05126875  0.28463195    -0.01400
C769        C  0.02730045  0.29278404  0.25719469    -0.02500
C770        C  0.01005168  0.27339670  0.24553429     0.07200
C771        C  0.49580602  0.24783255  0.25366496    -0.02600
C772        C  0.49937786  0.24153034  0.27295148    -0.02600
C773        C  0.01654920  0.26125140  0.28461382     0.07300
C774        C  0.02997015  0.28704574  0.27661858    -0.02800
Br775      Br  0.05108099  0.31545096  0.29246380    -0.01300
Br776      Br  0.04912039  0.32640125  0.24669879    -0.01400
Br777      Br  0.48272073  0.20503324  0.28335175    -0.01400
Br778      Br  0.47033700  0.22162257  0.23886541    -0.01400
C779        C  0.49913580  0.35823721  0.33558517    -0.02500
C780        C  0.02220102  0.34225226  0.34559223     0.07200
C781        C  0.04423163  0.35828838  0.35594469    -0.02600
C782        C  0.04407702  0.39001920  0.35609678    -0.02600
C783        C  0.52188114  0.40590106  0.34547137     0.07300
C784        C  0.49921769  0.38995624  0.33562405    -0.02800
Br785      Br  0.46891114  0.41113458  0.32115128    -0.01300
Br786      Br  0.46916376  0.33737922  0.32064739    -0.01400
Br787      Br  0.07297516  0.41127869  0.37160823    -0.01400
Br788      Br  0.07431790  0.33715395  0.37057859    -0.01400
C789        C  0.04234507  0.10818841  0.32642857    -0.02500
C790        C  0.52470762  0.09191818  0.34010463     0.07200
C791        C  0.50805902  0.10807485  0.35366339    -0.02600
C792        C  0.50757991  0.13983588  0.35348503    -0.02600
C793        C  0.02454528  0.15609070  0.33959129     0.07300
C794        C  0.04146491  0.14004013  0.32612021    -0.02800
Br795      Br  0.06202604  0.16158617  0.30646003    -0.01300
Br796      Br  0.06577410  0.08695194  0.30786827    -0.01400
Br797      Br  0.48613709  0.16109322  0.37298583    -0.01400
Br798      Br  0.48739241  0.08688183  0.37347033    -0.01400
C799        C  0.02192913  0.45804890  0.27657832    -0.02500
C800        C  0.51672666  0.48675821  0.28400880     0.07200
C801        C  0.49882302  0.00702123  0.27443035    -0.02600
C802        C  0.49402505  0.00079397  0.25525799    -0.02600
C803        C  0.50454555  0.47519642  0.24526149     0.07300
C804        C  0.01503227  0.45179446  0.25759200    -0.02800
Br805      Br  0.01982783  0.41058076  0.24919256    -0.01300
Br806      Br  0.03831142  0.42679503  0.29248310    -0.01400
Br807      Br  0.46955867  0.02855104  0.24101996    -0.01400
Br808      Br  0.48413458  0.04416110  0.28523656    -0.01400
C809        C  0.35803711  0.28846131  0.82632511    -0.02500
C810        C  0.34198642  0.27658793  0.84164649     0.07200
C811        C  0.35799489  0.26432314  0.85698196    -0.02600
C812        C  0.38980315  0.26479385  0.85722811    -0.02600
C813        C  0.40587480  0.27661567  0.84187776     0.07300
C814        C  0.38985511  0.28810100  0.82632917    -0.02800
Br815      Br  0.41146896  0.30195143  0.80456965    -0.01300
Br816      Br  0.33639220  0.30409509  0.80493402    -0.01400
Br817      Br  0.41125732  0.25103325  0.87920010    -0.01400
Br818      Br  0.33643075  0.24802832  0.87813348    -0.01400
C819        C  0.10844702  0.26110473  0.83269254    -0.02500
C820        C  0.09206505  0.28060956  0.84450741     0.07200
C821        C  0.10768459  0.30038856  0.85662094    -0.02600
C822        C  0.13949421  0.30042857  0.85705126    -0.02600
C823        C  0.15589028  0.28087456  0.84524790     0.07300
C824        C  0.14019681  0.26129592  0.83301601    -0.02800
Br825      Br  0.16204633  0.23568041  0.81584327    -0.01300
Br826      Br  0.08749141  0.23510023  0.81523820    -0.01400
Br827      Br  0.16043881  0.32608272  0.87461722    -0.01400
Br828      Br  0.08553351  0.32641589  0.87334932    -0.01400
C829        C  0.38949810  0.45307421  0.85947374    -0.02500
C830        C  0.40513123  0.96217019  0.84398125     0.07200
C831        C  0.38879228  0.98312537  0.83305468    -0.02600
C832        C  0.35703021  0.98311618  0.83317849    -0.02600
C833        C  0.34114482  0.96275889  0.84461175     0.07300
C834        C  0.35767347  0.45240538  0.85990229    -0.02800
Br835      Br  0.33685465  0.44502925  0.88308407    -0.01300
Br836      Br  0.41245188  0.44720751  0.88215153    -0.01400
Br837      Br  0.33537302  0.00954487  0.81643476    -0.01400
Br838      Br  0.40958617  0.01114849  0.81703845    -0.01400
C839        C  0.13801315  0.44202730  0.85365015    -0.02500
C840        C  0.15506021  0.96191914  0.84666448     0.07200
C841        C  0.13971078  0.95071654  0.83080074    -0.02600
C842        C  0.10805911  0.94961344  0.83046992    -0.02600
C843        C  0.09139370  0.96077354  0.84571907     0.07300
C844        C  0.10631747  0.44198471  0.85269627    -0.02800
Br845      Br  0.08408554  0.41256578  0.86694592    -0.01300
Br846      Br  0.15820846  0.41263782  0.86912112    -0.01400
Br847      Br  0.08766520  0.93385812  0.80867556    -0.01400
Br848      Br  0.16185469  0.93841955  0.80892681    -0.01400
C849        C  0.21713737  0.28508135  0.77650611    -0.02500
C850        C  0.23965509  0.26853739  0.78610434     0.07200
C851        C  0.25758595  0.24792923  0.77595846    -0.02600
C852        C  0.25285645  0.24359140  0.75655320    -0.02600
C853        C  0.23055976  0.26034362  0.74685471     0.07300
C854        C  0.21281796  0.28125369  0.75701719    -0.02800
Br855      Br  0.18342933  0.30612655  0.74427292    -0.01300
Br856      Br  0.19111995  0.31233512  0.79011865    -0.01400
Br857      Br  0.27629759  0.21346365  0.74356544    -0.01400
Br858      Br  0.28993047  0.22664903  0.78842854    -0.01400
C859        C  0.23731009  0.36186247  0.70156445    -0.02500
C860        C  0.21930736  0.34650587  0.68831376     0.07200
C861        C  0.20196106  0.36302538  0.67529502    -0.02600
C862        C  0.20293743  0.39475270  0.67538545    -0.02600
C863        C  0.22163422  0.41008755  0.68830553     0.07300
C864        C  0.23885003  0.39351570  0.70138680    -0.02800
Br865      Br  0.26358946  0.41403057  0.71973425    -0.01300
Br866      Br  0.25832873  0.33960843  0.72086092    -0.01400
Br867      Br  0.17955647  0.41709793  0.65722563    -0.01400
Br868      Br  0.17772966  0.34227100  0.65683023    -0.01400
C869        C  0.23736236  0.11239090  0.67709135    -0.02500
C870        C  0.22290608  0.09653649  0.69168251     0.07200
C871        C  0.20758151  0.11289587  0.70573165    -0.02600
C872        C  0.20735263  0.14471420  0.70543289    -0.02600
C873        C  0.22182056  0.16051194  0.69084509     0.07300
C874        C  0.23685427  0.14416072  0.67669151    -0.02800
Br875      Br  0.25577443  0.16515994  0.65616426    -0.01300
Br876      Br  0.25631917  0.09068517  0.65681535    -0.01400
Br877      Br  0.18891378  0.16664045  0.72579130    -0.01400
Br878      Br  0.18769334  0.09189321  0.72585881    -0.01400
C879        C  0.24688556  0.01492118  0.76059437    -0.02500
C880        C  0.23514160  0.99285499  0.74843871     0.07200
C881        C  0.21662754  0.46826794  0.75657891    -0.02600
C882        C  0.22073473  0.46167576  0.77583497    -0.02600
C883        C  0.24332443  0.98003190  0.78760301     0.07300
C884        C  0.25051825  0.00894675  0.77999742    -0.02800
Br885      Br  0.26681421  0.04098804  0.79537024    -0.01300
Br886      Br  0.25692808  0.05401922  0.75054149    -0.01400
Br887      Br  0.19565085  0.43123571  0.78725684    -0.01400
Br888      Br  0.18975109  0.44341736  0.74183587    -0.01400
C889        C  0.03102647  0.27772201  0.75612612    -0.02500
C890        C  0.51448749  0.25510245  0.74647907     0.07200
C891        C  0.49329948  0.23785902  0.75667147    -0.02600
C892        C  0.48891995  0.24282365  0.77605110    -0.02600
C893        C  0.00593299  0.26497408  0.78570635     0.07300
C894        C  0.02738849  0.28199076  0.77561390    -0.02800
Br895      Br  0.05345931  0.31006798  0.78859694    -0.01300
Br896      Br  0.05803820  0.30399502  0.74263670    -0.01400
Br897      Br  0.45855250  0.21994334  0.78918449    -0.01400
Br898      Br  0.47083760  0.20633098  0.74445908    -0.01400
C899        C  0.51045269  0.38622086  0.70042975    -0.02500
C900        C  0.52823521  0.40198213  0.68737577     0.07200
C901        C  0.04581773  0.38644474  0.67437838    -0.02600
C902        C  0.04563930  0.35474749  0.67435856    -0.02600
C903        C  0.52760288  0.33851632  0.68718671     0.07300
C904        C  0.50993087  0.35456339  0.70023603    -0.02800
Br905      Br  0.48599498  0.33330626  0.71852028    -0.01300
Br906      Br  0.48812918  0.40788619  0.71936439    -0.01400
Br907      Br  0.06944467  0.33307478  0.65617084    -0.01400
Br908      Br  0.06951819  0.40788962  0.65607469    -0.01400
C909        C  0.50045748  0.13615295  0.69648277    -0.02500
C910        C  0.52595473  0.15255203  0.69028191     0.07200
C911        C  0.05078003  0.13674046  0.68360750    -0.02600
C912        C  0.05098035  0.10492953  0.68366392    -0.02600
C913        C  0.52626617  0.08813880  0.69016130     0.07300
C914        C  0.50050583  0.10435645  0.69630384    -0.02800
Br915      Br  0.46469762  0.08376641  0.70506021    -0.01300
Br916      Br  0.46504543  0.15656850  0.70592930    -0.01400
Br917      Br  0.08582778  0.08443268  0.67343225    -0.01400
Br918      Br  0.08513100  0.15753109  0.67299838    -0.01400
C919        C  0.01492120  0.95187922  0.77346521    -0.02500
C920        C  0.50292370  0.97493536  0.78527545     0.07200
C921        C  0.48709311  0.49958808  0.77430240    -0.02600
C922        C  0.49228701  0.50502069  0.75501650    -0.02600
C923        C  0.51400385  0.98579364  0.74617499     0.07300
C924        C  0.02134140  0.95791814  0.75439284    -0.02800
Br925      Br  0.04114225  0.92772387  0.73926818    -0.01300
Br926      Br  0.02197055  0.91128007  0.78225385    -0.01400
Br927      Br  0.47095103  0.53733293  0.74265964    -0.01400
Br928      Br  0.45764248  0.52383273  0.78732927    -0.01400
O929        O  0.05620103  0.99690745  0.66206434    -0.73600
O930        O  0.04478354  0.99137852  0.71873064    -0.74600
O931        O  0.05031987  0.94959194  0.68865823    -0.63200
O932        O  0.05065815  0.54039415  0.69033980    -0.71600
O933        O  0.50221763  0.53941244  0.68468252    -0.71100
O934        O  0.50096282  0.94994070  0.68535538    -0.62400
O935        O  0.49573157  0.49383475  0.71325230    -0.74900
O936        O  0.50871372  0.49373948  0.65727622    -0.73700
Cu937      Cu  0.05214555  0.99463139  0.69060412     1.04600
Cu938      Cu  0.50071274  0.49412400  0.68500628     1.04300
C939        C  0.03290935  0.99630896  0.65139524     0.92600
C940        C  0.51841125  0.49232884  0.72434452     0.91800
C941        C  0.02531052  0.93570858  0.68647122     0.83900
C942        C  0.02608844  0.55467594  0.68743248     0.90200
O943        O  0.50268400  0.70085330  0.68559575    -0.73600
O944        O  0.50305797  0.79080570  0.68378546    -0.74600
O945        O  0.50910615  0.74402907  0.65704607    -0.63200
O946        O  0.49656587  0.74827188  0.71308625    -0.71600
O947        O  0.04577779  0.74948085  0.71716867    -0.71100
O948        O  0.05854879  0.74353895  0.66087692    -0.62400
O949        O  0.05250368  0.79158546  0.68755367    -0.74900
O950        O  0.05134800  0.70109190  0.69089539    -0.73700
Cu951      Cu  0.50119597  0.74591687  0.68476886     1.04600
Cu952      Cu  0.05380465  0.74633613  0.68927648     1.04300
C953        C  0.52708191  0.68624659  0.68837817     0.92600
C954        C  0.52779586  0.80524704  0.68551578     0.91800
C955        C  0.53566759  0.74291709  0.65015670     0.83900
C956        C  0.51936224  0.75028853  0.72408215     0.90200
O957        O  0.24541607  0.00588675  0.66081490    -0.73600
O958        O  0.25502487  0.00119271  0.71751590    -0.74600
O959        O  0.25148225  0.95859881  0.68754501    -0.63200
O960        O  0.24957148  0.54783653  0.68989866    -0.71600
O961        O  0.19976200  0.54863756  0.69269592    -0.71100
O962        O  0.20183960  0.95728187  0.69093976    -0.62400
O963        O  0.20527963  0.99984318  0.72055020    -0.74900
O964        O  0.19570915  0.00431224  0.66394190    -0.73700
Cu965      Cu  0.25197041  0.00392986  0.68903622     1.04600
Cu966      Cu  0.19722513  0.50327881  0.69150943     1.04300
C967        C  0.21903468  0.00532026  0.65344146     0.92600
C968        C  0.23164542  0.99873879  0.72789727     0.91800
C969        C  0.22696998  0.94360044  0.68876184     0.83900
C970        C  0.22488355  0.56258130  0.69138713     0.90200
O971        O  0.19999653  0.70794107  0.69008706    -0.73600
O972        O  0.20070071  0.79884897  0.68879589    -0.74600
O973        O  0.19504201  0.75255635  0.66111655    -0.63200
O974        O  0.20551267  0.75471035  0.71750433    -0.71600
O975        O  0.25514355  0.75519161  0.71419250    -0.71100
O976        O  0.24477184  0.75138466  0.65787325    -0.62400
O977        O  0.25029450  0.79815088  0.68491602    -0.74900
O978        O  0.24979099  0.70758559  0.68716182    -0.73700
Cu979      Cu  0.19858311  0.75345104  0.68947191     1.04600
Cu980      Cu  0.25169777  0.75295636  0.68590263     1.04300
C981        C  0.22486185  0.69342721  0.68895633     0.92600
C982        C  0.22568766  0.81283446  0.68678252     0.91800
C983        C  0.21834732  0.75199989  0.65060234     0.83900
C984        C  0.23191322  0.75604422  0.72476931     0.90200
O985        O  0.49850279  0.93099022  0.86985813    -0.73600
O986        O  0.49859769  0.94378199  0.81334284    -0.74600
O987        O  0.04366529  0.93658979  0.84214607    -0.63200
O988        O  0.45294890  0.93726290  0.84148605    -0.71600
O989        O  0.45133132  0.48424136  0.84384259    -0.71100
O990        O  0.04264565  0.48789024  0.84380134    -0.62400
O991        O  0.49740376  0.49347257  0.81580182    -0.74900
O992        O  0.49776122  0.47926704  0.87185657    -0.73700
Cu993      Cu  0.49836037  0.93562428  0.84148188     1.04600
Cu994      Cu  0.49700869  0.48790138  0.84400025     1.04300
C995        C  0.49958931  0.45261665  0.87857572     0.92600
C996        C  0.49862435  0.47113045  0.80449626     0.91800
C997        C  0.05744931  0.46351817  0.84121780     0.83900
C998        C  0.43800996  0.45884028  0.84191764     0.90200
O999        O  0.00281259  0.74764218  0.81549421    -0.73600
O1000       O  0.99984638  0.76062684  0.87155611    -0.74600
O1001       O  0.45560046  0.75236870  0.84286592    -0.63200
O1002       O  0.04625221  0.75552793  0.84443300    -0.71600
O1003       O  0.04517709  0.80483076  0.83953960    -0.71100
O1004       O  0.45446883  0.80194001  0.83902251    -0.62400
O1005       O  0.99939511  0.81012158  0.86737405    -0.74900
O1006       O  0.00067089  0.79695354  0.81111005    -0.73700
Cu1007     Cu  0.00107407  0.75248696  0.84370096     1.04600
Cu1008     Cu  0.99977457  0.80531690  0.83905848     1.04300
C1009       C  0.00280485  0.77026177  0.80441453     0.92600
C1010       C  0.99976435  0.78732267  0.87832452     0.91800
C1011       C  0.44071738  0.77682375  0.84082135     0.83900
C1012       C  0.06003982  0.78051223  0.84213241     0.90200
O1013       O  0.24736804  0.49324695  0.81908382    -0.73600
O1014       O  0.24970668  0.47756428  0.87475304    -0.74600
O1015       O  0.29454189  0.48275281  0.84626950    -0.63200
O1016       O  0.20343450  0.48698703  0.84747207    -0.71600
O1017       O  0.20300512  0.93833464  0.84378313    -0.71100
O1018       O  0.29327015  0.93848485  0.84247756    -0.62400
O1019       O  0.24943414  0.93108155  0.87126698    -0.74900
O1020       O  0.24706191  0.94695023  0.81493683    -0.73700
Cu1021     Cu  0.24896423  0.48678383  0.84709581     1.04600
Cu1022     Cu  0.24817809  0.93701810  0.84291868     1.04300
C1023       C  0.24560744  0.47148618  0.80738917     0.92600
C1024       C  0.24863581  0.45076342  0.88122289     0.91800
C1025       C  0.30764770  0.45738834  0.84367382     0.83900
C1026       C  0.18828597  0.46296663  0.84440282     0.90200
O1027       O  0.24664417  0.74728976  0.81647689    -0.73600
O1028       O  0.25293621  0.75881238  0.87260916    -0.74600
O1029       O  0.20466274  0.75449802  0.84614390    -0.63200
O1030       O  0.29517136  0.75155341  0.84296773    -0.71600
O1031       O  0.29624619  0.80119633  0.83951655    -0.71100
O1032       O  0.20561678  0.80392766  0.84178214    -0.62400
O1033       O  0.25332769  0.80839003  0.86878357    -0.74900
O1034       O  0.24841972  0.79677387  0.81263779    -0.73700
Cu1035     Cu  0.24985542  0.75131848  0.84469856     1.04600
Cu1036     Cu  0.25099062  0.80427776  0.84056009     1.04300
C1037       C  0.24619723  0.77027666  0.80568952     0.92600
C1038       C  0.25395397  0.78539226  0.87954199     0.91800
C1039       C  0.19080078  0.77953312  0.84406760     0.83900
C1040       C  0.31001427  0.77599606  0.84095036     0.90200
O1041       O  0.05670362  0.49948191  0.36828737    -0.73600
O1042       O  0.04751483  0.49334831  0.31170127    -0.74600
O1043       O  0.05530473  0.54248745  0.33826265    -0.63200
O1044       O  0.04922013  0.95310856  0.34338152    -0.71600
O1045       O  0.49905453  0.95403892  0.34674937    -0.71100
O1046       O  0.50543054  0.54512879  0.34012710    -0.62400
O1047       O  0.49501448  0.99464099  0.31633177    -0.74900
O1048       O  0.50329008  0.00240027  0.37210230    -0.73700
Cu1049     Cu  0.05404391  0.49688234  0.33986850     1.04600
Cu1050     Cu  0.49759588  0.99900541  0.34431389     1.04300
C1051       C  0.53259229  0.50141466  0.37827906     0.92600
C1052       C  0.51849562  0.99253463  0.30609872     0.91800
C1053       C  0.53111099  0.55812165  0.33894280     0.83900
C1054       C  0.52370421  0.93926823  0.34551027     0.90200
O1055       O  0.50505472  0.70318777  0.33959881    -0.73600
O1056       O  0.50194722  0.79322764  0.34535058    -0.74600
O1057       O  0.49929003  0.75334690  0.31430824    -0.63200
O1058       O  0.50712863  0.74447508  0.37038519    -0.71600
O1059       O  0.05745955  0.74773464  0.36794568    -0.71100
O1060       O  0.04922355  0.75490123  0.31134311    -0.62400
O1061       O  0.05192807  0.79577153  0.34175218    -0.74900
O1062       O  0.05520494  0.70523294  0.33766306    -0.73700
Cu1063     Cu  0.50168606  0.74831819  0.34244287     1.04600
Cu1064     Cu  0.05522164  0.75080021  0.33954156     1.04300
C1065       C  0.03078999  0.68991657  0.33826858     0.92600
C1066       C  0.02659766  0.80888876  0.34423377     0.91800
C1067       C  0.02288858  0.75675379  0.30396984     0.83900
C1068       C  0.03366404  0.74588481  0.37799269     0.90200
O1069       O  0.19583655  0.55418187  0.33694036    -0.73600
O1070       O  0.19855303  0.96570796  0.34260334    -0.74600
O1071       O  0.19278629  0.01387187  0.36898442    -0.63200
O1072       O  0.20722341  0.00650951  0.31300644    -0.71600
O1073       O  0.25664430  0.00579458  0.31785432    -0.71100
O1074       O  0.24218989  0.01223848  0.37383088    -0.62400
O1075       O  0.24794286  0.96469168  0.34758557    -0.74900
O1076       O  0.24471159  0.55600528  0.34236351    -0.73700
Cu1077     Cu  0.19849607  0.01078810  0.34071828     1.04600
Cu1078     Cu  0.24777564  0.51091092  0.34388489     1.04300
C1079       C  0.21991919  0.56964032  0.33898591     0.92600
C1080       C  0.22293406  0.95093889  0.34528437     0.91800
C1081       C  0.21519606  0.01342188  0.38025028     0.83900
C1082       C  0.23403962  0.00356075  0.30670103     0.90200
O1083       O  0.18855593  0.75933180  0.36631285    -0.73600
O1084       O  0.20173567  0.76580074  0.31026664    -0.74600
O1085       O  0.19509041  0.71707419  0.33583850    -0.63200
O1086       O  0.19546668  0.80721890  0.34017400    -0.71600
O1087       O  0.24500080  0.80604517  0.34459585    -0.71100
O1088       O  0.24392061  0.71598562  0.34135130    -0.62400
O1089       O  0.25115671  0.76417392  0.31488274    -0.74900
O1090       O  0.23816194  0.75887644  0.37048577    -0.73700
Cu1091     Cu  0.19346163  0.76225775  0.33800339     1.04600
Cu1092     Cu  0.24623667  0.76112149  0.34294664     1.04300
C1093       C  0.21151934  0.75888778  0.37723433     0.92600
C1094       C  0.22858310  0.76670436  0.30378906     0.91800
C1095       C  0.21933689  0.70193917  0.33808012     0.83900
C1096       C  0.22045267  0.82086803  0.34290285     0.90200
O1097       O  0.51026865  0.50051335  0.40851735    -0.73600
O1098       O  0.51339222  0.49647927  0.46498199    -0.74600
O1099       O  0.51265040  0.54374820  0.43782232    -0.63200
O1100       O  0.50975328  0.95191897  0.43660178    -0.71600
O1101       O  0.06068158  0.95364221  0.43563885    -0.71100
O1102       O  0.06291965  0.54331446  0.43657517    -0.62400
O1103       O  0.06081307  0.99714429  0.46529329    -0.74900
O1104       O  0.05797567  0.00090802  0.40858910    -0.73700
Cu1105     Cu  0.51011756  0.49845908  0.43673783     1.04600
Cu1106     Cu  0.06123726  0.99896285  0.43689042     1.04300
C1107       C  0.03503111  0.50089261  0.39904203     0.92600
C1108       C  0.03623111  0.99572576  0.47461231     0.91800
C1109       C  0.03811724  0.55793728  0.43736365     0.83900
C1110       C  0.03613790  0.93855110  0.43563836     0.90200
O1111       O  0.06606657  0.74875059  0.46353600    -0.73600
O1112       O  0.06161081  0.74668513  0.40678482    -0.74600
O1113       O  0.06399135  0.79327634  0.43447445    -0.63200
O1114       O  0.06363994  0.70258230  0.43579440    -0.71600
O1115       O  0.51336319  0.70246846  0.43764457    -0.71100
O1116       O  0.51327524  0.79318729  0.43600331    -0.62400
O1117       O  0.51105716  0.74624654  0.40861416    -0.74900
O1118       O  0.51575402  0.74891922  0.46521036    -0.73700
Cu1119     Cu  0.06555541  0.74784660  0.43510844     1.04600
Cu1120     Cu  0.51163272  0.74774734  0.43692593     1.04300
C1121       C  0.04182418  0.74901949  0.47322236     0.92600
C1122       C  0.03582224  0.74614824  0.39868120     0.91800
C1123       C  0.03904199  0.80773982  0.43486058     0.83900
C1124       C  0.03860905  0.68841222  0.43679744     0.90200
O1125       O  0.23379032  0.01272007  0.41153262    -0.73600
O1126       O  0.22483141  0.00915125  0.46772454    -0.74600
O1127       O  0.22939412  0.96550212  0.43829719    -0.63200
O1128       O  0.23081002  0.55661737  0.43850119    -0.71600
O1129       O  0.18084194  0.55606792  0.43631648    -0.71100
O1130       O  0.17965053  0.96559046  0.43480886    -0.62400
O1131       O  0.17518212  0.00770253  0.46515186    -0.74900
O1132       O  0.18408808  0.01309382  0.40794515    -0.73700
Cu1133     Cu  0.23071538  0.01109208  0.43962062     1.04600
Cu1134     Cu  0.17755812  0.01067171  0.43634763     1.04300
C1135       C  0.21073621  0.01332981  0.40085195     0.92600
C1136       C  0.19895624  0.00698861  0.47548520     0.91800
C1137       C  0.20454619  0.95124566  0.43606487     0.83900
C1138       C  0.20562553  0.57061115  0.43733814     0.90200
O1139       O  0.17881054  0.71511285  0.43387092    -0.73600
O1140       O  0.17915575  0.80588593  0.43388701    -0.74600
O1141       O  0.18193055  0.76021195  0.40543130    -0.63200
O1142       O  0.17687615  0.75973132  0.46260226    -0.71600
O1143       O  0.22623605  0.76297496  0.46374334    -0.71100
O1144       O  0.23181280  0.75879772  0.40792119    -0.62400
O1145       O  0.22913351  0.80620106  0.43464855    -0.74900
O1146       O  0.22862410  0.71532375  0.43710465    -0.73700
Cu1147     Cu  0.17737973  0.76035610  0.43387649     1.04600
Cu1148     Cu  0.23058232  0.76083547  0.43590463     1.04300
C1149       C  0.20371348  0.70094124  0.43570684     0.92600
C1150       C  0.20407171  0.82041994  0.43411102     0.91800
C1151       C  0.20802238  0.75911951  0.39779411     0.83900
C1152       C  0.20120232  0.76076985  0.47234386     0.90200
O1153       O  0.45667105  0.91992698  0.09613572    -0.73600
O1154       O  0.04759851  0.92291776  0.09611333    -0.74600
O1155       O  0.00203124  0.92384137  0.12431908    -0.63200
O1156       O  0.00228594  0.91829109  0.06752512    -0.71600
O1157       O  0.99930270  0.46726678  0.06359617    -0.71100
O1158       O  0.99980179  0.47392790  0.11985083    -0.62400
O1159       O  0.04526962  0.47048373  0.09181568    -0.74900
O1160       O  0.45442627  0.47048457  0.09193390    -0.73700
Cu1161     Cu  0.00233408  0.91925023  0.09606338     1.04600
Cu1162     Cu  0.49975160  0.47234909  0.09149519     1.04300
C1163       C  0.44156655  0.94443453  0.09560277     0.92600
C1164       C  0.06092232  0.94840386  0.09524171     0.91800
C1165       C  0.00101950  0.94986025  0.13201725     0.83900
C1166       C  0.00096962  0.94240859  0.05772272     0.90200
O1167       O  0.00325676  0.78280334  0.06309291    -0.73600
O1168       O  0.00061737  0.77868344  0.11948007    -0.74600
O1169       O  0.45632744  0.78249015  0.09070546    -0.63200
O1170       O  0.04717594  0.77888936  0.09226324    -0.71600
O1171       O  0.04892301  0.82878425  0.09413781    -0.71100
O1172       O  0.45813596  0.83237531  0.09217210    -0.62400
O1173       O  0.00214298  0.82851741  0.12152509    -0.74900
O1174       O  0.00586069  0.83252515  0.06457762    -0.73700
Cu1175     Cu  0.00172100  0.77907170  0.09126896     1.04600
Cu1176     Cu  0.00378404  0.83234668  0.09307803     1.04300
C1177       C  0.00552887  0.80824644  0.05484844     0.92600
C1178       C  0.00132728  0.80266241  0.12942703     0.91800
C1179       C  0.44289920  0.80797608  0.09121428     0.83900
C1180       C  0.06231172  0.80331271  0.09346306     0.90200
O1181       O  0.25198499  0.46390772  0.06437348    -0.73600
O1182       O  0.24956760  0.47564637  0.12025561    -0.74600
O1183       O  0.29584733  0.46976206  0.09316098    -0.63200
O1184       O  0.20518214  0.46967359  0.09171248    -0.71600
O1185       O  0.20537526  0.92240795  0.09674754    -0.71100
O1186       O  0.29618907  0.91947749  0.09770467    -0.62400
O1187       O  0.25051614  0.92405370  0.12557656    -0.74900
O1188       O  0.25172762  0.91789186  0.06882095    -0.73700
Cu1189     Cu  0.25059174  0.47144756  0.09222626     1.04600
Cu1190     Cu  0.25083166  0.91916992  0.09726599     1.04300
C1191       C  0.25275022  0.94187306  0.05889700     0.92600
C1192       C  0.25119638  0.95021508  0.13311456     0.91800
C1193       C  0.31113631  0.94402847  0.09676339     0.83900
C1194       C  0.19179611  0.94779813  0.09574700     0.90200
O1195       O  0.24903758  0.83111703  0.06522224    -0.73600
O1196       O  0.25345931  0.82822038  0.12200469    -0.74600
O1197       O  0.29668033  0.83206353  0.09247457    -0.63200
O1198       O  0.20618974  0.82797997  0.09471866    -0.71600
O1199       O  0.20791119  0.77804502  0.09329428    -0.71100
O1200       O  0.29884182  0.78216078  0.09139429    -0.62400
O1201       O  0.25511686  0.77832426  0.12031517    -0.74900
O1202       O  0.25175348  0.78134631  0.06417899    -0.73700
Cu1203     Cu  0.25129387  0.83159846  0.09365074     1.04600
Cu1204     Cu  0.25350110  0.77826407  0.09226897     1.04300
C1205       C  0.24965424  0.80660859  0.05573165     0.92600
C1206       C  0.25474048  0.80249595  0.13003695     0.91800
C1207       C  0.31207606  0.80775963  0.09165706     0.83900
C1208       C  0.19277178  0.80253498  0.09420435     0.90200
O1209       O  0.50092463  0.49248640  0.21317496    -0.73600
O1210       O  0.49800119  0.48064222  0.15734169    -0.74600
O1211       O  0.45356668  0.48699549  0.18583860    -0.63200
O1212       O  0.04389630  0.48626324  0.18461580    -0.71600
O1213       O  0.04423086  0.93176577  0.19048313    -0.71100
O1214       O  0.45468536  0.93961374  0.19150339    -0.62400
O1215       O  0.49893309  0.93042825  0.16293247    -0.74900
O1216       O  0.50105272  0.94246275  0.21930307    -0.73700
Cu1217     Cu  0.49895774  0.48828660  0.18507972     1.04600
Cu1218     Cu  0.49977015  0.93462178  0.19123700     1.04300
C1219       C  0.50322516  0.96902612  0.22618689     0.92600
C1220       C  0.50098448  0.95352910  0.15231895     0.91800
C1221       C  0.44185012  0.96499729  0.18868903     0.83900
C1222       C  0.06047862  0.95526946  0.18852266     0.90200
O1223       O  0.00484325  0.80997430  0.21759600    -0.73600
O1224       O  0.00223096  0.82294700  0.16081925    -0.74600
O1225       O  0.45828684  0.81574851  0.18993209    -0.63200
O1226       O  0.04863037  0.81848392  0.18877357    -0.71600
O1227       O  0.05009771  0.76915231  0.18381207    -0.71100
O1228       O  0.45922570  0.76613349  0.18645551    -0.62400
O1229       O  0.00239791  0.77333462  0.15715299    -0.74900
O1230       O  0.00761025  0.76089025  0.21276207    -0.73700
Cu1231     Cu  0.00340226  0.81857716  0.18937346     1.04600
Cu1232     Cu  0.00480871  0.76575455  0.18482872     1.04300
C1233       C  0.00727450  0.78313718  0.22410736     0.92600
C1234       C  0.00184916  0.79974265  0.15009979     0.91800
C1235       C  0.44439267  0.79068797  0.18837502     0.83900
C1236       C  0.06365013  0.79429751  0.18621794     0.90200
O1237       O  0.25143020  0.94677418  0.22099411    -0.73600
O1238       O  0.25352484  0.93133323  0.16463825    -0.74600
O1239       O  0.29752365  0.94179740  0.19322068    -0.63200
O1240       O  0.20765940  0.93503090  0.19192483    -0.71600
O1241       O  0.20266096  0.49246265  0.18476793    -0.71100
O1242       O  0.29399170  0.49167158  0.18633819    -0.62400
O1243       O  0.24921468  0.48471103  0.15789555    -0.74900
O1244       O  0.24662774  0.50010748  0.21342627    -0.73700
Cu1245     Cu  0.25268995  0.93703480  0.19296448     1.04600
Cu1246     Cu  0.24822912  0.49396892  0.18544574     1.04300
C1247       C  0.24948020  0.97381601  0.22723939     0.92600
C1248       C  0.25113441  0.95396367  0.15362864     0.91800
C1249       C  0.31038661  0.96679732  0.18957758     0.83900
C1250       C  0.19128591  0.95835069  0.18957206     0.90200
O1251       O  0.25043785  0.76331581  0.21353970    -0.73600
O1252       O  0.25480427  0.77374976  0.15791321    -0.74600
O1253       O  0.29842315  0.76724017  0.18689643    -0.63200
O1254       O  0.20776416  0.77028727  0.18461017    -0.71600
O1255       O  0.20905698  0.81982672  0.18870153    -0.71100
O1256       O  0.29969101  0.81695745  0.18991857    -0.62400
O1257       O  0.25528311  0.82349453  0.16102502    -0.74900
O1258       O  0.25275378  0.81277981  0.21741354    -0.73700
Cu1259     Cu  0.25293196  0.76697395  0.18560747     1.04600
Cu1260     Cu  0.25436721  0.82003034  0.18939317     1.04300
C1261       C  0.25007449  0.78630264  0.22430342     0.92600
C1262       C  0.25514199  0.79999045  0.15061802     0.91800
C1263       C  0.31340037  0.79171571  0.18856277     0.83900
C1264       C  0.19411854  0.79545068  0.18661823     0.90200
O1265       O  0.00134471  0.91772897  0.96616070    -0.73600
O1266       O  0.00005884  0.92381980  0.90906367    -0.74600
O1267       O  0.04616060  0.91802451  0.93744759    -0.63200
O1268       O  0.45555279  0.92315315  0.93775421    -0.71600
O1269       O  0.45766941  0.47227852  0.93838077    -0.71100
O1270       O  0.04864840  0.46428196  0.93812521    -0.62400
O1271       O  0.00267181  0.47253621  0.90984785    -0.74900
O1272       O  0.00313999  0.46560180  0.96631523    -0.73700
Cu1273     Cu  0.00075620  0.91878326  0.93753850     1.04600
Cu1274     Cu  0.00335995  0.47053916  0.93823078     1.04300
C1275       C  0.99985422  0.43992361  0.97410299     0.92600
C1276       C  0.00103836  0.44913337  0.89940622     0.91800
C1277       C  0.06069670  0.43804653  0.93809442     0.83900
C1278       C  0.44159329  0.44852202  0.93675984     0.90200
O1279       O  0.00180610  0.81810084  0.90594108    -0.73600
O1280       O  0.00779138  0.82835351  0.96239116    -0.74600
O1281       O  0.04990225  0.82185021  0.93266018    -0.63200
O1282       O  0.45941319  0.82429926  0.93582436    -0.71600
O1283       O  0.45795104  0.77464013  0.93907755    -0.71100
O1284       O  0.04871537  0.77226164  0.93646725    -0.62400
O1285       O  0.00574792  0.77886126  0.96576113    -0.74900
O1286       O  0.00108155  0.76849954  0.90959160    -0.75300
Cu1287     Cu  0.00469152  0.82499525  0.93404849     1.04600
Cu1288     Cu  0.00334780  0.77198003  0.93779329     1.04300
C1289       C  0.00075112  0.79158049  0.89889748     0.92600
C1290       C  0.00774956  0.80515541  0.97302250     0.91800
C1291       C  0.06359885  0.79665168  0.93434938     0.83900
C1292       C  0.44435858  0.79995722  0.93782964     0.90200
O1293       O  0.20401450  0.46114122  0.94104192    -0.73600
O1294       O  0.29424425  0.46936413  0.94067975    -0.74600
O1295       O  0.24830810  0.46962034  0.91254261    -0.63200
O1296       O  0.25037067  0.46086680  0.96885158    -0.71600
O1297       O  0.25526073  0.91675196  0.96730638    -0.71100
O1298       O  0.25251206  0.92345423  0.91037866    -0.62400
O1299       O  0.29903451  0.92295571  0.93836878    -0.74900
O1300       O  0.20859991  0.91642995  0.93948432    -0.73700
Cu1301     Cu  0.24902928  0.46691506  0.94084270     1.04600
Cu1302     Cu  0.25398037  0.91813208  0.93879193     1.04300
C1303       C  0.19162242  0.43515379  0.94054709     0.92600
C1304       C  0.31056228  0.44595391  0.93842424     0.91800
C1305       C  0.24908718  0.44643455  0.90187696     0.83900
C1306       C  0.25400033  0.94073559  0.97728626     0.90200
O1307       O  0.25461642  0.81595239  0.90718626    -0.73600
O1308       O  0.25015598  0.82613787  0.96354878    -0.74600
O1309       O  0.29804760  0.82323210  0.93673036    -0.63200
O1310       O  0.20770538  0.81939372  0.93402777    -0.71600
O1311       O  0.20903311  0.76980151  0.93783416    -0.71100
O1312       O  0.30009230  0.77356518  0.93975186    -0.62400
O1313       O  0.25285136  0.77662485  0.96682312    -0.74900
O1314       O  0.25577753  0.76632508  0.91073019    -0.73700
Cu1315     Cu  0.25266781  0.82288016  0.93525143     1.04600
Cu1316     Cu  0.25459702  0.76985054  0.93890804     1.04300
C1317       C  0.25508679  0.78945143  0.90009479     0.92600
C1318       C  0.25047957  0.80285690  0.97409814     0.91800
C1319       C  0.31342006  0.79904625  0.93853786     0.83900
C1320       C  0.19408719  0.79420985  0.93567094     0.90200
O1321       O  0.06386494  0.49396315  0.62166035    -0.73600
O1322       O  0.06680167  0.49170317  0.56440280    -0.74600
O1323       O  0.06632273  0.53778086  0.59214614    -0.63200
O1324       O  0.06396961  0.94833713  0.59451864    -0.71600
O1325       O  0.51443053  0.94687370  0.59311082    -0.71100
O1326       O  0.51641582  0.53801386  0.59130696    -0.62400
O1327       O  0.51432574  0.99179750  0.56468412    -0.74900
O1328       O  0.51212838  0.99332441  0.62091078    -0.73700
Cu1329     Cu  0.06739373  0.49269199  0.59300763     1.04600
Cu1330     Cu  0.51185833  0.99240480  0.59279429     1.04300
C1331       C  0.03798897  0.49429941  0.62964412     0.92600
C1332       C  0.03916745  0.99235310  0.55603439     0.91800
C1333       C  0.04163142  0.55256958  0.59152668     0.83900
C1334       C  0.03931713  0.93351050  0.59379146     0.90200
O1335       O  0.06491246  0.74232881  0.62159701    -0.73600
O1336       O  0.06948263  0.74477155  0.56444906    -0.74600
O1337       O  0.06735813  0.78863861  0.59382992    -0.63200
O1338       O  0.06796423  0.69811468  0.59204211    -0.71600
O1339       O  0.51793153  0.69708102  0.59080537    -0.71100
O1340       O  0.51749671  0.78794022  0.59202853    -0.62400
O1341       O  0.51949365  0.74359424  0.56330065    -0.74900
O1342       O  0.51509011  0.74184084  0.61945626    -0.73700
Cu1343     Cu  0.06922413  0.74340062  0.59304227     1.04600
Cu1344     Cu  0.51584641  0.74254245  0.59134554     1.04300
C1345       C  0.03887188  0.74244601  0.62936208     0.92600
C1346       C  0.04497725  0.74508561  0.55485401     0.91800
C1347       C  0.04231306  0.80284436  0.59307328     0.83900
C1348       C  0.04319141  0.68348242  0.59111308     0.90200
O1349       O  0.18630612  0.54986336  0.59521566    -0.73600
O1350       O  0.18503763  0.95874254  0.59733437    -0.74600
O1351       O  0.18913838  0.00477420  0.62529745    -0.63200
O1352       O  0.18000036  0.00280965  0.56840315    -0.71600
O1353       O  0.23275031  0.50390924  0.56473769    -0.71100
O1354       O  0.23888168  0.00542789  0.62223057    -0.62400
O1355       O  0.23482735  0.95921024  0.59424392    -0.74900
O1356       O  0.23621580  0.54970073  0.59303866    -0.73700
Cu1357     Cu  0.18271415  0.00387117  0.59700077     1.04600
Cu1358     Cu  0.23782256  0.50422333  0.59317891     1.04300
C1359       C  0.21125776  0.56408741  0.59404745     0.92600
C1360       C  0.21004848  0.94468550  0.59580882     0.91800
C1361       C  0.21550586  0.00531102  0.63270437     0.83900
C1362       C  0.20341895  0.00307517  0.55791566     0.90200
O1363       O  0.23853708  0.75244722  0.61969965    -0.73600
O1364       O  0.23000426  0.75707358  0.56355248    -0.74600
O1365       O  0.23462928  0.79983150  0.59298607    -0.63200
O1366       O  0.23419104  0.70913906  0.59034873    -0.71600
O1367       O  0.18448872  0.70893033  0.59373721    -0.71100
O1368       O  0.18466490  0.79975861  0.59440835    -0.62400
O1369       O  0.18067367  0.75439638  0.56551291    -0.74900
O1370       O  0.18872201  0.75365386  0.62240790    -0.73700
Cu1371     Cu  0.23599762  0.75460164  0.59152146     1.04600
Cu1372     Cu  0.18287170  0.75424073  0.59409232     1.04300
C1373       C  0.21496616  0.75259399  0.62995733     0.92600
C1374       C  0.20436392  0.75586362  0.55536121     0.91800
C1375       C  0.20967229  0.81411599  0.59402345     0.83900
C1376       C  0.20939540  0.69469851  0.59203454     0.90200
C1377       C  0.19283794  0.89582035  0.58190352    -0.02500
C1378       C  0.21005740  0.91131721  0.59549692     0.07200
C1379       C  0.22703311  0.89483976  0.60872916    -0.02600
C1380       C  0.22691934  0.86305629  0.60829559    -0.02600
C1381       C  0.20975867  0.84753756  0.59463219     0.07300
C1382       C  0.19288146  0.86409713  0.58138406    -0.02800
Br1383     Br  0.17143611  0.84346177  0.56161324    -0.01300
Br1384     Br  0.17013871  0.91805960  0.56336068    -0.01400
Br1385     Br  0.24944488  0.84088999  0.62693498    -0.01400
Br1386     Br  0.24919005  0.91578691  0.62809979    -0.01400
C1387       C  0.22346883  0.64471323  0.57791472    -0.02500
C1388       C  0.20959057  0.66125453  0.59242287     0.07200
C1389       C  0.19619361  0.64570079  0.60749725    -0.02600
C1390       C  0.19668823  0.61395055  0.60802378    -0.02600
C1391       C  0.21108902  0.59747624  0.59366941     0.07300
C1392       C  0.22457751  0.61300189  0.57865071    -0.02800
Br1393     Br  0.24328331  0.59081500  0.55848310    -0.01300
Br1394     Br  0.23907387  0.66523517  0.55626599    -0.01400
Br1395     Br  0.17862564  0.59315668  0.62890752    -0.01400
Br1396     Br  0.17829265  0.66781080  0.62797604    -0.01400
C1397       C  0.02311964  0.88345143  0.60673653    -0.02500
C1398       C  0.04025952  0.90005933  0.59371006     0.07200
C1399       C  0.55901568  0.88395982  0.58082514    -0.02600
C1400       C  0.55981242  0.85220188  0.58074550    -0.02600
C1401       C  0.04213218  0.83624349  0.59353112     0.07300
C1402       C  0.02429714  0.85170989  0.60676348    -0.02800
Br1403     Br  0.00285928  0.82947470  0.62575406    -0.01300
Br1404     Br  0.99888717  0.90407952  0.62515871    -0.01400
Br1405     Br  0.58383376  0.83136872  0.56227011    -0.01400
Br1406     Br  0.58195119  0.90588615  0.56236357    -0.01400
C1407       C  0.56119627  0.63317986  0.60393886    -0.02500
C1408       C  0.04364066  0.64996303  0.59074216     0.07200
C1409       C  0.02598599  0.63395882  0.57755835    -0.02600
C1410       C  0.02509489  0.60218909  0.57789498    -0.02600
C1411       C  0.04248751  0.58603269  0.59111290     0.07300
C1412       C  0.56081806  0.60142885  0.60400598    -0.02800
Br1413     Br  0.58484528  0.58000413  0.62228195    -0.01300
Br1414     Br  0.58530418  0.65422382  0.62233005    -0.01400
Br1415     Br  0.00131242  0.58090548  0.55940500    -0.01400
Br1416     Br  0.00483991  0.65535626  0.55797374    -0.01400
C1417       C  0.39525965  0.78731758  0.95345054    -0.02500
C1418       C  0.41089928  0.80093670  0.93849803     0.07200
C1419       C  0.39442456  0.81488424  0.92394672    -0.02600
C1420       C  0.36261414  0.81506024  0.92427605    -0.02600
C1421       C  0.34692396  0.80052066  0.93888902     0.07300
C1422       C  0.36341794  0.78696636  0.95359692    -0.02800
Br1423     Br  0.34246153  0.76923646  0.97451975    -0.01300
Br1424     Br  0.41745615  0.77018932  0.97420150    -0.01400
Br1425     Br  0.34068152  0.83413851  0.90409918    -0.01400
Br1426     Br  0.41530292  0.83184675  0.90273560    -0.01400
C1427       C  0.14478626  0.81233026  0.94813137    -0.02500
C1428       C  0.16071538  0.79381176  0.93549887     0.07200
C1429       C  0.14466182  0.77595305  0.92248357    -0.02600
C1430       C  0.11285646  0.77708950  0.92191055    -0.02600
C1431       C  0.09698018  0.79585048  0.93446720     0.07300
C1432       C  0.11308748  0.81340217  0.94760105    -0.02800
Br1433     Br  0.09179687  0.83791189  0.96561150    -0.01300
Br1434     Br  0.16632004  0.83501660  0.96700984    -0.01400
Br1435     Br  0.09115566  0.75420921  0.90320954    -0.01400
Br1436     Br  0.16617098  0.75085641  0.90490770    -0.01400
C1437       C  0.36153972  0.93462026  0.95369459    -0.02500
C1438       C  0.34406281  0.44832643  0.93888537     0.07200
C1439       C  0.35931582  0.47272834  0.93034871    -0.02600
C1440       C  0.39119440  0.47355852  0.93008825    -0.02600
C1441       C  0.40810983  0.44986781  0.93821966     0.07300
C1442       C  0.39324342  0.93431815  0.95339545    -0.02800
Br1443     Br  0.41497767  0.91298508  0.97267817    -0.01300
Br1444     Br  0.34054582  0.91453390  0.97371126    -0.01400
Br1445     Br  0.41118329  0.50697307  0.91803343    -0.01400
Br1446     Br  0.33700646  0.50473198  0.91823961    -0.01400
C1447       C  0.14202190  0.41207414  0.93027356    -0.02500
C1448       C  0.15811061  0.43278473  0.94159717     0.07200
C1449       C  0.14283219  0.95478802  0.95453535    -0.02600
C1450       C  0.11108430  0.95590504  0.95375889    -0.02600
C1451       C  0.09407640  0.43476430  0.94003363     0.07300
C1452       C  0.11020417  0.41310457  0.92946755    -0.02800
Br1453     Br  0.08925599  0.38490605  0.91345702    -0.01300
Br1454     Br  0.16310236  0.38241216  0.91541841    -0.01400
Br1455     Br  0.08942371  0.97774987  0.97289604    -0.01400
Br1456     Br  0.16382568  0.97391088  0.97513024    -0.01400
C1457       C  0.39453612  0.77567516  0.17426713    -0.02500
C1458       C  0.41087294  0.79034703  0.18864961     0.07200
C1459       C  0.39500882  0.80559741  0.20295759    -0.02600
C1460       C  0.36319524  0.80543910  0.20315636    -0.02600
C1461       C  0.34689002  0.79093518  0.18872226     0.07300
C1462       C  0.36271519  0.77631672  0.17417781    -0.02800
Br1463     Br  0.34091941  0.75901408  0.15330102    -0.01300
Br1464     Br  0.41559687  0.75634888  0.15387452    -0.01400
Br1465     Br  0.34201682  0.82389617  0.22381010    -0.01400
Br1466     Br  0.41668249  0.82617149  0.22271773    -0.01400
C1467       C  0.11282123  0.81539017  0.17479826    -0.02500
C1468       C  0.09700385  0.79529580  0.18650563     0.07200
C1469       C  0.11314582  0.77650698  0.19891043    -0.02600
C1470       C  0.14488615  0.77688011  0.19907413    -0.02600
C1471       C  0.16075222  0.79613823  0.18687464     0.07300
C1472       C  0.14461174  0.81590163  0.17504342    -0.02800
Br1473     Br  0.16592725  0.84298069  0.15862401    -0.01300
Br1474     Br  0.09110524  0.84139699  0.15779828    -0.01400
Br1475     Br  0.16651394  0.75236799  0.21699943    -0.01400
Br1476     Br  0.09179681  0.75161659  0.21664361    -0.01400
C1477       C  0.39145695  0.94260456  0.17980147    -0.02500
C1478       C  0.40819869  0.96679381  0.18758779     0.07200
C1479       C  0.39019145  0.48156754  0.20072984    -0.02600
C1480       C  0.35842051  0.48272852  0.20092470    -0.02600
C1481       C  0.34395132  0.96777676  0.18796739     0.07300
C1482       C  0.35965614  0.94313724  0.17994635    -0.02800
Br1483     Br  0.33797848  0.91062028  0.16773405    -0.01300
Br1484     Br  0.41157969  0.90924685  0.16751014    -0.01400
Br1485     Br  0.33811317  0.50620689  0.21981194    -0.01400
Br1486     Br  0.41277946  0.50426218  0.21907123    -0.01400
C1487       C  0.10699907  0.47404695  0.17116290    -0.02500
C1488       C  0.09388454  0.95294934  0.18714001     0.07200
C1489       C  0.11036787  0.93174709  0.19783767    -0.02600
C1490       C  0.14213797  0.93306638  0.19843988    -0.02600
C1491       C  0.15785770  0.95531848  0.18810354     0.07300
C1492       C  0.13866449  0.47691360  0.17160122    -0.02800
Br1493     Br  0.15938102  0.49360670  0.15028803    -0.01300
Br1494     Br  0.08484817  0.48488916  0.14882613    -0.01400
Br1495     Br  0.16327053  0.90449730  0.21414443    -0.01400
Br1496     Br  0.09011851  0.90060076  0.21192732    -0.01400
C1497       C  0.22956897  0.78665640  0.02493776    -0.02500
C1498       C  0.24812746  0.80725312  0.03481124     0.07200
C1499       C  0.26575369  0.82791383  0.02452022    -0.02600
C1500       C  0.26558583  0.82742301  0.00474253    -0.02600
C1501       C  0.24814929  0.80591818  0.99489912     0.07300
C1502       C  0.22930873  0.78628362  0.00515620    -0.02800
Br1503     Br  0.20137396  0.76007052  0.99215525    -0.01300
Br1504     Br  0.20366131  0.75913563  0.03833007    -0.01400
Br1505     Br  0.29061310  0.85555049  0.99134985    -0.01400
Br1506     Br  0.29247755  0.85533144  0.03733871    -0.01400
C1507       C  0.27905994  0.44599102  0.02675504    -0.02500
C1508       C  0.25425271  0.94004150  0.03802513     0.07200
C1509       C  0.23453458  0.92099198  0.02788218    -0.02600
C1510       C  0.23514378  0.92036000  0.00809953    -0.02600
C1511       C  0.25513750  0.93917251  0.99815018     0.07300
C1512       C  0.27921656  0.44543839  0.00698715    -0.02800
Br1513     Br  0.31275581  0.46250565  0.99352758    -0.01300
Br1514     Br  0.31275719  0.46319248  0.04020210    -0.01400
Br1515     Br  0.20686339  0.89522316  0.99469537    -0.01400
Br1516     Br  0.20477038  0.89750381  0.04091917    -0.01400
C1517       C  0.39317359  0.79471969  0.07638293    -0.02500
C1518       C  0.40943105  0.80914649  0.09087197     0.07200
C1519       C  0.39356964  0.82421589  0.10522531    -0.02600
C1520       C  0.36174273  0.82452898  0.10520664    -0.02600
C1521       C  0.34550537  0.80916992  0.09106711     0.07300
C1522       C  0.36135949  0.79460739  0.07653084    -0.02800
Br1523     Br  0.33945502  0.77572997  0.05623719    -0.01300
Br1524     Br  0.41443914  0.77619739  0.05580523    -0.01400
Br1525     Br  0.34052944  0.84487198  0.12514675    -0.01400
Br1526     Br  0.41533486  0.84269708  0.12571373    -0.01400
C1527       C  0.14320779  0.78723299  0.10837621    -0.02500
C1528       C  0.15939681  0.80176753  0.09401837     0.07200
C1529       C  0.14358415  0.81623312  0.07942368    -0.02600
C1530       C  0.11187755  0.81690031  0.07937841    -0.02600
C1531       C  0.09564338  0.80230661  0.09365314     0.07300
C1532       C  0.11136250  0.78712325  0.10804433    -0.02800
Br1533     Br  0.08927961  0.76722430  0.12770533    -0.01300
Br1534     Br  0.16457879  0.76894675  0.12901522    -0.01400
Br1535     Br  0.09069600  0.83686120  0.05924655    -0.01400
Br1536     Br  0.16533944  0.83378036  0.05884468    -0.01400
C1537       C  0.49221549  0.82977447  0.00365802    -0.02500
C1538       C  0.00968208  0.80837820  0.99390915     0.07200
C1539       C  0.02800599  0.78858540  0.00449809    -0.02600
C1540       C  0.02695146  0.78881419  0.02428984    -0.02600
C1541       C  0.00799342  0.80932494  0.03390714     0.07300
C1542       C  0.49116784  0.83019999  0.02345968    -0.02800
Br1543     Br  0.46497570  0.85869721  0.03575333    -0.01300
Br1544     Br  0.46870661  0.85877702  0.98983774    -0.01400
Br1545     Br  0.05273330  0.76154223  0.03808788    -0.01400
Br1546     Br  0.05645760  0.76248056  0.99195259    -0.01400
C1547       C  0.39190101  0.92595840  0.08340558    -0.02500
C1548       C  0.40822257  0.94342543  0.09646568     0.07200
C1549       C  0.39148738  0.46559841  0.10655376    -0.02600
C1550       C  0.35968399  0.46560065  0.10691780    -0.02600
C1551       C  0.34447516  0.94319670  0.09702975     0.07300
C1552       C  0.36017728  0.92644894  0.08341189    -0.02800
Br1553     Br  0.33834496  0.90597988  0.06381619    -0.01300
Br1554     Br  0.41282056  0.90217215  0.06492907    -0.01400
Br1555     Br  0.33873842  0.49341830  0.12316994    -0.01400
Br1556     Br  0.41346158  0.49238476  0.12303669    -0.01400
C1557       C  0.10914529  0.42860723  0.10644852    -0.02500
C1558       C  0.09436951  0.94961350  0.09582919     0.07200
C1559       C  0.11054621  0.96545544  0.08199288    -0.02600
C1560       C  0.14237209  0.96532972  0.08214054    -0.02600
C1561       C  0.15830640  0.94895901  0.09595751     0.07300
C1562       C  0.14094451  0.42858960  0.10664904    -0.02800
Br1563     Br  0.16200281  0.40746437  0.12641382    -0.01300
Br1564     Br  0.08760705  0.40661085  0.12554099    -0.01400
Br1565     Br  0.16395511  0.98675448  0.06285886    -0.01400
Br1566     Br  0.08924797  0.98637186  0.06226809    -0.01400
C1567       C  0.97520315  0.45324854  0.00472309    -0.02500
C1568       C  0.99844867  0.43822602  0.99495750     0.07200
C1569       C  0.52319590  0.92481446  0.00700906    -0.02600
C1570       C  0.52321240  0.92558445  0.02682731    -0.02600
C1571       C  0.99812263  0.43935442  0.03483948     0.07300
C1572       C  0.97510957  0.45395511  0.02451999    -0.02800
Br1573     Br  0.94296566  0.47456067  0.03749178    -0.01300
Br1574     Br  0.94286844  0.47222741  0.99090421    -0.01400
Br1575     Br  0.55617014  0.90761038  0.04052496    -0.01400
Br1576     Br  0.55454953  0.90316731  0.99402417    -0.01400
C1577       C  0.17480843  0.76461976  0.50435240    -0.02500
C1578       C  0.20115667  0.75876177  0.49359577     0.07200
C1579       C  0.22792638  0.75036093  0.50344231    -0.02600
C1580       C  0.22849764  0.74865545  0.52322719    -0.02600
C1581       C  0.20263428  0.75605107  0.53407730     0.07300
C1582       C  0.17560490  0.76358003  0.52426183    -0.02800
Br1583     Br  0.13884386  0.77328869  0.53758380    -0.01300
Br1584     Br  0.13684262  0.77468652  0.49232007    -0.01400
Br1585     Br  0.26551311  0.73423074  0.53482485    -0.01400
Br1586     Br  0.26490879  0.73952317  0.49043298    -0.01400
C1587       C  0.18610566  0.86968062  0.44736055    -0.02500
C1588       C  0.20385357  0.85395028  0.43417365     0.07200
C1589       C  0.22156985  0.87043473  0.42132540    -0.02600
C1590       C  0.22169904  0.90225453  0.42182783    -0.02600
C1591       C  0.20429685  0.91784052  0.43523426     0.07300
C1592       C  0.18619011  0.90141375  0.44780759    -0.02800
Br1593     Br  0.16233248  0.92235212  0.46631476    -0.01300
Br1594     Br  0.16308520  0.84789990  0.46579928    -0.01400
Br1595     Br  0.24428607  0.92454220  0.40337749    -0.01400
Br1596     Br  0.24472065  0.84964712  0.40242703    -0.01400
C1597       C  0.19405560  0.65096591  0.42044593    -0.02500
C1598       C  0.20368751  0.66760539  0.43620126     0.07200
C1599       C  0.21316533  0.65228800  0.45247083    -0.02600
C1600       C  0.21456185  0.62058567  0.45268485    -0.02600
C1601       C  0.20501895  0.60393441  0.43694370     0.07300
C1602       C  0.19427330  0.61921139  0.42092197    -0.02800
Br1603     Br  0.18074668  0.59666356  0.39935638    -0.01300
Br1604     Br  0.18150792  0.67170030  0.39798212    -0.01400
Br1605     Br  0.22853010  0.59990522  0.47481620    -0.01400
Br1606     Br  0.22187160  0.67461420  0.47498011    -0.01400
C1607       C  0.21871772  0.98500847  0.50601737    -0.02500
C1608       C  0.19734784  0.00334664  0.49656275     0.07200
C1609       C  0.18528452  0.52662168  0.50624179    -0.02600
C1610       C  0.18625601  0.52564687  0.52612448    -0.02600
C1611       C  0.20039402  0.00217624  0.53682742     0.07300
C1612       C  0.22014661  0.98433259  0.52586308    -0.02800
Br1613     Br  0.24833146  0.95728875  0.53790060    -0.01300
Br1614     Br  0.24448301  0.95827775  0.49184067    -0.01400
Br1615     Br  0.16371150  0.55498622  0.54031696    -0.01400
Br1616     Br  0.16123765  0.55698660  0.49393526    -0.01400
C1617       C  0.52760158  0.76993356  0.50504862    -0.02500
C1618       C  0.04348284  0.74860335  0.49412634     0.07200
C1619       C  0.06037902  0.72613654  0.50351459    -0.02600
C1620       C  0.06153822  0.72537990  0.52330787    -0.02600
C1621       C  0.04560736  0.74690462  0.53398789     0.07300
C1622       C  0.52880475  0.76907562  0.52481691    -0.02800
Br1623     Br  0.50819355  0.79976401  0.53912536    -0.01300
Br1624     Br  0.50505047  0.80151142  0.49275990    -0.01400
Br1625     Br  0.08330145  0.69346517  0.53577408    -0.01400
Br1626     Br  0.08005142  0.69474611  0.48933419    -0.01400
C1627       C  0.05473106  0.88921162  0.44838014    -0.02500
C1628       C  0.03737036  0.90509068  0.43501936     0.07200
C1629       C  0.52064883  0.88855574  0.42124274    -0.02600
C1630       C  0.52168881  0.85675168  0.42097052    -0.02600
C1631       C  0.03913456  0.84120606  0.43452390     0.07300
C1632       C  0.05557301  0.85746471  0.44814461    -0.02800
Br1633     Br  0.07818227  0.83626636  0.46716635    -0.01300
Br1634     Br  0.07629295  0.91079487  0.46773319    -0.01400
Br1635     Br  0.50192399  0.83488614  0.40100241    -0.01400
Br1636     Br  0.49902477  0.90980924  0.40180196    -0.01400
C1637       C  0.55344297  0.60685778  0.42309132    -0.02500
C1638       C  0.03855692  0.59131059  0.43741175     0.07200
C1639       C  0.02350556  0.60756490  0.45159023    -0.02600
C1640       C  0.02358248  0.63931633  0.45144305    -0.02600
C1641       C  0.03853995  0.65505230  0.43703949     0.07300
C1642       C  0.55322761  0.63859392  0.42287625    -0.02800
Br1643     Br  0.57161786  0.65977761  0.40223272    -0.01300
Br1644     Br  0.57314300  0.58518464  0.40307552    -0.01400
Br1645     Br  0.00422002  0.66115091  0.47150574    -0.01400
Br1646     Br  0.00387155  0.58642285  0.47177563    -0.01400
C1647       C  0.52413665  0.96986550  0.50523130    -0.02500
C1648       C  0.03715214  0.99464332  0.49543269     0.07200
C1649       C  0.05625825  0.51678760  0.50463144    -0.02600
C1650       C  0.05717446  0.51568724  0.52440356    -0.02600
C1651       C  0.03923557  0.99270248  0.53518211     0.07300
C1652       C  0.52556054  0.96874993  0.52498458    -0.02800
Br1653     Br  0.50872904  0.93467684  0.53804981    -0.01300
Br1654     Br  0.50496745  0.93752145  0.49156113    -0.01400
Br1655     Br  0.07669376  0.54764835  0.53820312    -0.01400
Br1656     Br  0.07507705  0.54994457  0.49172486    -0.01400
C1657       C  0.21865818  0.79492925  0.27374481    -0.02500
C1658       C  0.23369000  0.77145035  0.28337338     0.07200
C1659       C  0.25426864  0.75311466  0.27349241    -0.02600
C1660       C  0.26063269  0.75879770  0.25448333    -0.02600
C1661       C  0.24533536  0.78199876  0.24477907     0.07300
C1662       C  0.22384031  0.79964410  0.25447219    -0.02800
Br1663     Br  0.19958912  0.82894385  0.24120574    -0.01300
Br1664     Br  0.19173011  0.82172706  0.28698045    -0.01400
Br1665     Br  0.29127535  0.73517194  0.24205128    -0.01400
Br1666     Br  0.27233535  0.71868514  0.28553799    -0.01400
C1667       C  0.24389459  0.90170840  0.33427876    -0.02500
C1668       C  0.22249814  0.91765734  0.34509283     0.07200
C1669       C  0.20046064  0.90167460  0.35527707    -0.02600
C1670       C  0.20005514  0.86997732  0.35483641    -0.02600
C1671       C  0.22115095  0.85409942  0.34379811     0.07300
C1672       C  0.24294712  0.87010181  0.33344318    -0.02800
Br1673     Br  0.27050475  0.84905661  0.31700550    -0.01300
Br1674     Br  0.27373130  0.92285166  0.31955832    -0.01400
Br1675     Br  0.17151541  0.84848762  0.37025395    -0.01400
Br1676     Br  0.17142286  0.92292879  0.37052646    -0.01400
C1677       C  0.19234890  0.61981104  0.34152209    -0.02500
C1678       C  0.21917615  0.60344729  0.33764711     0.07200
C1679       C  0.24552319  0.61979745  0.33276563    -0.02600
C1680       C  0.24560463  0.65161341  0.33292613    -0.02600
C1681       C  0.21894587  0.66804726  0.33719305     0.07300
C1682       C  0.19208840  0.65164248  0.34096725    -0.02800
Br1683     Br  0.15416246  0.67184741  0.34616139    -0.01300
Br1684     Br  0.15534510  0.59948714  0.34856520    -0.01400
Br1685     Br  0.28303833  0.67177866  0.32663614    -0.01400
Br1686     Br  0.28198713  0.59934108  0.32475666    -0.01400
C1687       C  0.22638615  0.96901145  0.27904417    -0.02500
C1688       C  0.23871512  0.99582344  0.28651472     0.07200
C1689       C  0.24747775  0.51943029  0.27275866    -0.02600
C1690       C  0.25187780  0.51320464  0.25351461    -0.02600
C1691       C  0.24735175  0.98035698  0.24794383     0.07300
C1692       C  0.23125739  0.96092943  0.26011515    -0.02800
Br1693     Br  0.21483553  0.92322883  0.25127184    -0.01300
Br1694     Br  0.20274894  0.94284089  0.29484451    -0.01400
Br1695     Br  0.26976902  0.54458771  0.23840949    -0.01400
Br1696     Br  0.25891442  0.55803422  0.28298711    -0.01400
C1697       C  0.02784811  0.79639913  0.25646525    -0.02500
C1698       C  0.01030435  0.77726467  0.24480708     0.07200
C1699       C  0.49731657  0.75083777  0.25306020    -0.02600
C1700       C  0.50221921  0.74374295  0.27213572    -0.02600
C1701       C  0.01923375  0.76340134  0.28355714     0.07300
C1702       C  0.03165199  0.78984704  0.27574099    -0.02800
Br1703     Br  0.05265845  0.81814976  0.29170023    -0.01300
Br1704     Br  0.04851768  0.83081022  0.24612622    -0.01400
Br1705     Br  0.48653643  0.70664346  0.28230429    -0.01400
Br1706     Br  0.47119161  0.72491842  0.23849134    -0.01400
C1707       C  0.50193771  0.85788701  0.33572723    -0.02500
C1708       C  0.02518498  0.84221190  0.34550408     0.07200
C1709       C  0.04676001  0.85836116  0.35615110    -0.02600
C1710       C  0.04594301  0.89008210  0.35667702    -0.02600
C1711       C  0.52330036  0.90586029  0.34623595     0.07300
C1712       C  0.50117366  0.88957327  0.33612477    -0.02800
Br1713     Br  0.47055356  0.91028342  0.32164761    -0.01300
Br1714     Br  0.47263896  0.83663315  0.32049019    -0.01400
Br1715     Br  0.07463687  0.91147915  0.37224910    -0.01400
Br1716     Br  0.07698654  0.83730541  0.37072223    -0.01400
C1717       C  0.05163742  0.60809348  0.32670657    -0.02500
C1718       C  0.53258961  0.59179356  0.33915066     0.07200
C1719       C  0.51465549  0.60807606  0.35201988    -0.02600
C1720       C  0.51418869  0.63983468  0.35178848    -0.02600
C1721       C  0.03182362  0.65625147  0.33847604     0.07300
C1722       C  0.05077105  0.63998224  0.32615783    -0.02800
Br1723     Br  0.07438108  0.66113333  0.30768056    -0.01300
Br1724     Br  0.07865433  0.58680651  0.31014564    -0.01400
Br1725     Br  0.49090675  0.66096768  0.37053411    -0.01400
Br1726     Br  0.49238473  0.58708906  0.37125833    -0.01400
C1727       C  0.02500010  0.95861644  0.27807969    -0.02500
C1728       C  0.51487624  0.98664120  0.28575691     0.07200
C1729       C  0.50498351  0.50958886  0.27252244    -0.02600
C1730       C  0.49935604  0.50423398  0.25330702    -0.02600
C1731       C  0.50559745  0.97402883  0.24700073     0.07300
C1732       C  0.02032527  0.95235670  0.25887896    -0.02800
Br1733     Br  0.03514689  0.91457090  0.24917262    -0.01300
Br1734     Br  0.04405117  0.92890958  0.29399193    -0.01400
Br1735     Br  0.48332846  0.53747902  0.23888376    -0.01400
Br1736     Br  0.49717517  0.54876268  0.28336745    -0.01400
C1737       C  0.35923989  0.78875914  0.82564874    -0.02500
C1738       C  0.34343151  0.77527405  0.84056840     0.07200
C1739       C  0.35969214  0.76191238  0.85543609    -0.02600
C1740       C  0.39147392  0.76282298  0.85563865    -0.02600
C1741       C  0.40728807  0.77609225  0.84064907     0.07300
C1742       C  0.39104494  0.78884589  0.82558285    -0.02800
Br1743     Br  0.41231816  0.80526000  0.80437102    -0.01300
Br1744     Br  0.33736981  0.80601333  0.80481805    -0.01400
Br1745     Br  0.41320569  0.74785453  0.87719905    -0.01400
Br1746     Br  0.33854808  0.74352777  0.87608226    -0.01400
C1747       C  0.10975732  0.76032519  0.83126972    -0.02500
C1748       C  0.09347599  0.78104545  0.84234139     0.07200
C1749       C  0.10927709  0.80180408  0.85374093    -0.02600
C1750       C  0.14107466  0.80114075  0.85452019    -0.02600
C1751       C  0.15733683  0.78005783  0.84366970     0.07300
C1752       C  0.14150139  0.75984423  0.83191159    -0.02800
Br1753     Br  0.16314693  0.73245503  0.81570686    -0.01300
Br1754     Br  0.08873374  0.73376985  0.81415190    -0.01400
Br1755     Br  0.16210580  0.82815422  0.87130058    -0.01400
Br1756     Br  0.08751696  0.83059035  0.86889245    -0.01400
C1757       C  0.38921122  0.94140868  0.85524646    -0.02500
C1758       C  0.40467285  0.45721377  0.84235384     0.07200
C1759       C  0.38796147  0.45846702  0.82555693    -0.02600
C1760       C  0.35619439  0.45742022  0.82597573    -0.02600
C1761       C  0.34097187  0.45581880  0.84321112     0.07300
C1762       C  0.35738177  0.94179530  0.85561929    -0.02800
Br1763     Br  0.33622558  0.91421421  0.87188112    -0.01300
Br1764     Br  0.41076479  0.91328442  0.87103879    -0.01400
Br1765     Br  0.33342815  0.45673455  0.80293815    -0.01400
Br1766     Br  0.40866460  0.46102596  0.80195762    -0.01400
C1767       C  0.13844696  0.97196659  0.86229205    -0.02500
C1768       C  0.15481026  0.46383960  0.84382755     0.07200
C1769       C  0.13948568  0.48540265  0.83277145    -0.02600
C1770       C  0.10767250  0.48513368  0.83164155    -0.02600
C1771       C  0.09092603  0.46365512  0.84181684     0.07300
C1772       C  0.10664013  0.97189859  0.86169247    -0.02800
Br1773     Br  0.08399714  0.98579266  0.88309710    -0.01300
Br1774     Br  0.15914864  0.98396525  0.88493022    -0.01400
Br1775     Br  0.08730578  0.51262033  0.81489206    -0.01400
Br1776     Br  0.16197743  0.51418951  0.81813914    -0.01400
C1777       C  0.22050557  0.78308379  0.77517051    -0.02500
C1778       C  0.24253366  0.76631574  0.78502405     0.07200
C1779       C  0.26087215  0.74583931  0.77502561    -0.02600
C1780       C  0.25715226  0.74208091  0.75547418    -0.02600
C1781       C  0.23551059  0.75930841  0.74553362     0.07300
C1782       C  0.21747553  0.78012502  0.75555442    -0.02800
Br1783     Br  0.18971962  0.80633504  0.74243663    -0.01300
Br1784     Br  0.19304615  0.80907505  0.78862407    -0.01400
Br1785     Br  0.28112749  0.71226839  0.74257801    -0.01400
Br1786     Br  0.29216411  0.72371907  0.78793949    -0.01400
C1787       C  0.24735990  0.86164372  0.69841202    -0.02500
C1788       C  0.22633861  0.84627579  0.68695161     0.07200
C1789       C  0.20605051  0.86299347  0.67576392    -0.02600
C1790       C  0.20638764  0.89474171  0.67629752    -0.02600
C1791       C  0.22749290  0.91015303  0.68771138     0.07300
C1792       C  0.24842992  0.89338211  0.69846824    -0.02800
Br1793     Br  0.27803292  0.91347496  0.71403782    -0.01300
Br1794     Br  0.27330330  0.83938008  0.71527965    -0.01400
Br1795     Br  0.17870071  0.91695151  0.66051536    -0.01400
Br1796     Br  0.17853330  0.84259021  0.65896559    -0.01400
C1797       C  0.23828261  0.61135252  0.67573143    -0.02500
C1798       C  0.22525733  0.59606667  0.69102970     0.07200
C1799       C  0.21192797  0.61289200  0.70562076    -0.02600
C1800       C  0.21166803  0.64469010  0.70492670    -0.02600
C1801       C  0.22485603  0.65995773  0.68966772     0.07300
C1802       C  0.23822908  0.64311341  0.67510355    -0.02800
Br1803     Br  0.25524812  0.66346400  0.65372257    -0.01300
Br1804     Br  0.25467329  0.58880250  0.65496665    -0.01400
Br1805     Br  0.19452002  0.66733040  0.72541027    -0.01400
Br1806     Br  0.19522566  0.59242976  0.72704347    -0.01400
C1807       C  0.25274535  0.50928034  0.75910335    -0.02500
C1808       C  0.23260780  0.49214072  0.74800604     0.07200
C1809       C  0.22765968  0.96438956  0.75577600    -0.02600
C1810       C  0.23287528  0.95748455  0.77487485    -0.02600
C1811       C  0.24177370  0.47810986  0.78681804     0.07300
C1812       C  0.25766289  0.50210086  0.77821065    -0.02800
Br1813     Br  0.28722331  0.52491846  0.79222366    -0.01300
Br1814     Br  0.27238884  0.54399570  0.74840936    -0.01400
Br1815     Br  0.22610126  0.91628004  0.78258633    -0.01400
Br1816     Br  0.20994891  0.93447713  0.73942291    -0.01400
C1817       C  0.03102759  0.77836819  0.75404667    -0.02500
C1818       C  0.51494005  0.75509090  0.74470406     0.07200
C1819       C  0.49409112  0.73756089  0.75495176    -0.02600
C1820       C  0.48958811  0.74273505  0.77431260    -0.02600
C1821       C  0.00629885  0.76555516  0.78374608     0.07300
C1822       C  0.02722260  0.78299568  0.77349246    -0.02800
Br1823     Br  0.05232081  0.81229521  0.78616210    -0.01300
Br1824     Br  0.05778583  0.80466265  0.74037436    -0.01400
Br1825     Br  0.45934152  0.71976470  0.78746812    -0.01400
Br1826     Br  0.47257215  0.70522099  0.74281759    -0.01400
C1827       C  0.50513028  0.88555885  0.69675804    -0.02500
C1828       C  0.52534922  0.90208399  0.68552167     0.07200
C1829       C  0.04527765  0.88714998  0.67355724    -0.02600
C1830       C  0.04637816  0.85544665  0.67357071    -0.02600
C1831       C  0.52717756  0.83851942  0.68542843     0.07300
C1832       C  0.50639921  0.85393608  0.69693739    -0.02800
Br1833     Br  0.48078335  0.83200073  0.71402565    -0.01300
Br1834     Br  0.47588276  0.90588904  0.71238000    -0.01400
Br1835     Br  0.07371287  0.83482662  0.65686693    -0.01400
Br1836     Br  0.06990761  0.90940422  0.65608555    -0.01400
C1837       C  0.50057138  0.63618658  0.69307343    -0.02500
C1838       C  0.52689637  0.65246730  0.68811555     0.07200
C1839       C  0.05223510  0.63655278  0.68200198    -0.02600
C1840       C  0.05208786  0.60475007  0.68181657    -0.02600
C1841       C  0.52638871  0.58803391  0.68720908     0.07300
C1842       C  0.50011481  0.60441635  0.69226291    -0.02800
Br1843     Br  0.46276867  0.58418014  0.69859303    -0.01300
Br1844     Br  0.46467947  0.65662726  0.70190719    -0.01400
Br1845     Br  0.08797415  0.58421738  0.67301576    -0.01400
Br1846     Br  0.08777359  0.65712270  0.67277273    -0.01400
C1847       C  0.02465789  0.45987161  0.77384904    -0.02500
C1848       C  0.50288609  0.47642081  0.78386048     0.07200
C1849       C  0.49554838  0.00311116  0.77679695    -0.02600
C1850       C  0.50106353  0.00828406  0.75751107    -0.02600
C1851       C  0.51364117  0.48773041  0.74495644     0.07300
C1852       C  0.02983123  0.46553168  0.75464130    -0.02800
Br1853     Br  0.05925266  0.44128000  0.74151278    -0.01300
Br1854     Br  0.04944798  0.43030884  0.78649012    -0.01400
Br1855     Br  0.49270426  0.04719496  0.74671323    -0.01400
Br1856     Br  0.47599144  0.03488787  0.79075518    -0.01400
O1857       O  0.55832433  0.49548207  0.66112630    -0.73600
O1858       O  0.54517402  0.49337926  0.71765393    -0.74600
O1859       O  0.55263977  0.44964579  0.68898405    -0.63200
O1860       O  0.55079044  0.03961213  0.69230019    -0.71600
O1861       O  0.00116841  0.04038857  0.68714943    -0.71100
O1862       O  0.00258126  0.44949919  0.68531578    -0.62400
O1863       O  0.99519810  0.99345902  0.71485882    -0.74900
O1864       O  0.00650065  0.99621462  0.65855623    -0.73700
Cu1865     Cu  0.55355150  0.49474260  0.68966629     1.04600
Cu1866     Cu  0.99919215  0.99525062  0.68640442     1.04300
C1867       C  0.53522790  0.49438581  0.65030242     0.92600
C1868       C  0.01818039  0.99084768  0.72566831     0.91800
C1869       C  0.52792405  0.43515202  0.68721182     0.83900
C1870       C  0.52629330  0.05435060  0.68987479     0.90200
O1871       O  0.00092233  0.20133970  0.68745229    -0.73600
O1872       O  0.00198407  0.29178404  0.68578106    -0.74600
O1873       O  0.00708460  0.24491857  0.65872875    -0.63200
O1874       O  0.99544563  0.24896588  0.71490904    -0.71600
O1875       O  0.54535119  0.24919751  0.71890924    -0.71100
O1876       O  0.55707645  0.24293701  0.66237629    -0.62400
O1877       O  0.55206654  0.29088044  0.68911761    -0.74900
O1878       O  0.55046767  0.20078293  0.69268433    -0.73700
Cu1879     Cu  0.99966601  0.24668295  0.68659991     1.04600
Cu1880     Cu  0.55296644  0.24584981  0.69090471     1.04300
C1881       C  0.02537733  0.18672888  0.69021824     0.92600
C1882       C  0.02706344  0.30576126  0.68724917     0.91800
C1883       C  0.03351975  0.24359827  0.65165080     0.83900
C1884       C  0.01837280  0.25086239  0.72579754     0.90200
O1885       O  0.74401299  0.50485172  0.66040073    -0.73600
O1886       O  0.75232838  0.50039901  0.71711682    -0.74600
O1887       O  0.74712568  0.45780074  0.68759245    -0.63200
O1888       O  0.74840302  0.05008279  0.69047124    -0.71600
O1889       O  0.69864517  0.04865471  0.69335105    -0.71100
O1890       O  0.69728080  0.45884306  0.69028937    -0.62400
O1891       O  0.70260782  0.50123486  0.71991194    -0.74900
O1892       O  0.69421644  0.50581455  0.66299614    -0.73700
Cu1893     Cu  0.74982692  0.50300890  0.68867864     1.04600
Cu1894     Cu  0.69830573  0.00313982  0.69234938     1.04300
C1895       C  0.71786614  0.50553262  0.65272204     0.92600
C1896       C  0.72880670  0.49889588  0.72743565     0.91800
C1897       C  0.72186655  0.44406351  0.68870526     0.83900
C1898       C  0.72309655  0.06373642  0.69192154     0.90200
O1899       O  0.69550404  0.20872443  0.69105234    -0.73600
O1900       O  0.69413199  0.29948221  0.68964854    -0.74600
O1901       O  0.69008575  0.25309977  0.66198005    -0.63200
O1902       O  0.69977490  0.25566068  0.71858611    -0.71600
O1903       O  0.74940251  0.25682834  0.71532485    -0.71100
O1904       O  0.73988105  0.25311206  0.65906535    -0.62400
O1905       O  0.74390073  0.29979379  0.68630792    -0.74900
O1906       O  0.74530822  0.20930875  0.68827967    -0.73700
Cu1907     Cu  0.69311993  0.25413786  0.69041462     1.04600
Cu1908     Cu  0.74630221  0.25468742  0.68711771     1.04300
C1909       C  0.72063286  0.19467675  0.68995274     0.92600
C1910       C  0.71890965  0.31389176  0.68792168     0.91800
C1911       C  0.71359343  0.25308085  0.65161247     0.83900
C1912       C  0.72616292  0.25732562  0.72588009     0.90200
O1913       O  0.99976986  0.43022231  0.86761006    -0.73600
O1914       O  0.99775518  0.44427645  0.81106559    -0.74600
O1915       O  0.54358869  0.43868093  0.83847427    -0.63200
O1916       O  0.95316511  0.43508877  0.83959179    -0.71600
O1917       O  0.95345933  0.98669175  0.84563761    -0.71100
O1918       O  0.54378522  0.98682606  0.84638318    -0.62400
O1919       O  0.00013477  0.99254572  0.81767662    -0.74900
O1920       O  0.99859768  0.98012942  0.87390512    -0.73700
Cu1921     Cu  0.99850460  0.43537106  0.83905009     1.04600
Cu1922     Cu  0.99893930  0.98803588  0.84605940     1.04300
C1923       C  0.99902452  0.95349510  0.88081848     0.92600
C1924       C  0.00013435  0.97002634  0.80645311     0.91800
C1925       C  0.55800889  0.96198955  0.84460114     0.83900
C1926       C  0.93878598  0.96208367  0.84374273     0.90200
O1927       O  0.50160716  0.24717755  0.81744097    -0.73600
O1928       O  0.49843834  0.26096778  0.87340895    -0.74600
O1929       O  0.95415134  0.25290759  0.84451261    -0.63200
O1930       O  0.54483850  0.25515528  0.84638331    -0.71600
O1931       O  0.54393091  0.30449490  0.84149514    -0.71100
O1932       O  0.95315133  0.30236825  0.84013688    -0.62400
O1933       O  0.49785020  0.31040020  0.86892041    -0.74900
O1934       O  0.49997378  0.29647389  0.81284957    -0.73700
Cu1935     Cu  0.49966690  0.25234209  0.84561271     1.04600
Cu1936     Cu  0.49856170  0.30513603  0.84069788     1.04300
C1937       C  0.50206610  0.26970751  0.80629072     0.92600
C1938       C  0.49840496  0.28778769  0.87999809     0.91800
C1939       C  0.93932228  0.27731729  0.84211082     0.83900
C1940       C  0.55867650  0.28011096  0.84412101     0.90200
O1941       O  0.74574732  0.99639062  0.82014541    -0.73600
O1942       O  0.74959360  0.98095377  0.87577240    -0.74600
O1943       O  0.79348224  0.98819049  0.84717465    -0.63200
O1944       O  0.70243699  0.98838106  0.84912288    -0.71600
O1945       O  0.70187317  0.43851380  0.84174968    -0.71100
O1946       O  0.79224085  0.43431020  0.84112197    -0.62400
O1947       O  0.74752712  0.42898440  0.86993832    -0.74900
O1948       O  0.74605126  0.44500741  0.81344293    -0.73700
Cu1949     Cu  0.74788674  0.99016827  0.84822815     1.04600
Cu1950     Cu  0.74690987  0.43497014  0.84140618     1.04300
C1951       C  0.74564847  0.97460584  0.80842535     0.92600
C1952       C  0.74985164  0.95412548  0.88223488     0.91800
C1953       C  0.80769100  0.96339646  0.84466699     0.83900
C1954       C  0.68836327  0.96358752  0.84654237     0.90200
O1955       O  0.74476857  0.24919249  0.81714457    -0.73600
O1956       O  0.75178999  0.25987527  0.87319759    -0.74600
O1957       O  0.70334316  0.25566277  0.84700543    -0.63200
O1958       O  0.79368880  0.25303821  0.84350553    -0.71600
O1959       O  0.79475081  0.30270400  0.84010847    -0.71100
O1960       O  0.70390766  0.30520853  0.84304758    -0.62400
O1961       O  0.75221173  0.30951666  0.86961209    -0.74900
O1962       O  0.74618638  0.29873218  0.81352083    -0.73700
Cu1963     Cu  0.74842213  0.25273928  0.84533753     1.04600
Cu1964     Cu  0.74936207  0.30577242  0.84144959     1.04300
C1965       C  0.74381532  0.27231940  0.80648234     0.92600
C1966       C  0.75293485  0.28637250  0.88022996     0.91800
C1967       C  0.68930645  0.28063707  0.84522840     0.83900
C1968       C  0.80852880  0.27748772  0.84157279     0.90200
O1969       O  0.55317483  0.00077475  0.36976069    -0.73600
O1970       O  0.54484006  0.99463773  0.31337538    -0.74600
O1971       O  0.54958762  0.04373453  0.33980056    -0.63200
O1972       O  0.54924877  0.45179616  0.34168167    -0.71600
O1973       O  0.00001471  0.45532676  0.34552062    -0.71100
O1974       O  0.00058615  0.04428888  0.34168003    -0.62400
O1975       O  0.99779773  0.49581319  0.31491704    -0.74900
O1976       O  0.00699636  0.50365917  0.37071037    -0.73700
Cu1977     Cu  0.55084965  0.99821162  0.34142837     1.04600
Cu1978     Cu  0.00095048  0.50032088  0.34289804     1.04300
C1979       C  0.03023163  0.00205360  0.37976876     0.92600
C1980       C  0.02097985  0.49243916  0.30455499     0.91800
C1981       C  0.02561753  0.05838849  0.34022020     0.83900
C1982       C  0.02395437  0.43941415  0.34436218     0.90200
O1983       O  0.99919133  0.20377307  0.34098184    -0.73600
O1984       O  0.99832894  0.29394778  0.34581854    -0.74600
O1985       O  0.99537210  0.25327178  0.31511635    -0.63200
O1986       O  0.00213178  0.24569518  0.37147204    -0.71600
O1987       O  0.55122156  0.24712240  0.36925326    -0.71100
O1988       O  0.54454063  0.25308282  0.31280998    -0.62400
O1989       O  0.54729463  0.29479560  0.34266123    -0.74900
O1990       O  0.54825987  0.20414901  0.33933076    -0.73700
Cu1991     Cu  0.99705215  0.24899643  0.34338708     1.04600
Cu1992     Cu  0.54956416  0.24965428  0.34092820     1.04300
C1993       C  0.52341295  0.18952834  0.33985274     0.92600
C1994       C  0.52223377  0.30863792  0.34470888     0.91800
C1995       C  0.51852224  0.25522521  0.30511384     0.83900
C1996       C  0.52736127  0.24608258  0.37925848     0.90200
O1997       O  0.70068237  0.05544742  0.33888747    -0.73600
O1998       O  0.69839850  0.46360342  0.34169168    -0.74600
O1999       O  0.69096145  0.51185445  0.36788040    -0.63200
O2000       O  0.70312020  0.50438703  0.31163432    -0.71600
O2001       O  0.75263589  0.50754913  0.31572102    -0.71100
O2002       O  0.74057866  0.51269276  0.37179699    -0.62400
O2003       O  0.74801126  0.46553856  0.34548309    -0.74900
O2004       O  0.74971899  0.05466362  0.34449549    -0.73700
Cu2005     Cu  0.69541610  0.50848166  0.33943909     1.04600
Cu2006     Cu  0.75032795  0.00955232  0.34584501     1.04300
C2007       C  0.72553263  0.06951356  0.34147143     0.92600
C2008       C  0.72371189  0.45029827  0.34393069     0.91800
C2009       C  0.71402728  0.51253185  0.37873925     0.83900
C2010       C  0.72981783  0.50393485  0.30491170     0.90200
O2011       O  0.69427410  0.25896966  0.36707489    -0.73600
O2012       O  0.70997975  0.26338378  0.31122081    -0.74600
O2013       O  0.70261945  0.21563472  0.33760854    -0.63200
O2014       O  0.70172585  0.30588335  0.34033305    -0.71600
O2015       O  0.75110025  0.30593149  0.34554081    -0.71100
O2016       O  0.75157724  0.21555071  0.34350610    -0.62400
O2017       O  0.75923956  0.26335598  0.31637116    -0.74900
O2018       O  0.74367544  0.25933010  0.37209848    -0.73700
Cu2019     Cu  0.70045785  0.26083982  0.33885886     1.04600
Cu2020     Cu  0.75310936  0.26089875  0.34452468     1.04300
C2021       C  0.71670876  0.25907271  0.37840654     0.92600
C2022       C  0.73695056  0.26513073  0.30498102     0.91800
C2023       C  0.72708821  0.20111912  0.34049713     0.83900
C2024       C  0.72630415  0.32014482  0.34326952     0.90200
O2025       O  0.00796740  0.99995962  0.40986043    -0.73600
O2026       O  0.01081166  0.99547969  0.46610814    -0.74600
O2027       O  0.00855525  0.04309749  0.43909968    -0.63200
O2028       O  0.01157137  0.45318662  0.43560049    -0.71600
O2029       O  0.56108289  0.45242959  0.43456570    -0.71100
O2030       O  0.55796005  0.04370302  0.43800154    -0.62400
O2031       O  0.56337883  0.49618338  0.46393101    -0.74900
O2032       O  0.56025201  0.49941603  0.40716707    -0.73700
Cu2033     Cu  0.00777641  0.99761089  0.43793153     1.04600
Cu2034     Cu  0.56357178  0.49772078  0.43551025     1.04300
C2035       C  0.53139011  0.00081978  0.40039109     0.92600
C2036       C  0.53890568  0.49572905  0.47339557     0.91800
C2037       C  0.53276982  0.05764742  0.43863019     0.83900
C2038       C  0.53592490  0.43837416  0.43483910     0.90200
O2039       O  0.56270137  0.24842602  0.46438143    -0.73600
O2040       O  0.55582464  0.24635187  0.40775928    -0.74600
O2041       O  0.55978311  0.29288951  0.43527007    -0.63200
O2042       O  0.55862149  0.20223196  0.43669707    -0.71600
O2043       O  0.00902727  0.20335336  0.43884748    -0.71100
O2044       O  0.01049236  0.29406681  0.43728615    -0.62400
O2045       O  0.00657600  0.24727429  0.40990357    -0.74900
O2046       O  0.01312587  0.24972528  0.46652329    -0.73700
Cu2047     Cu  0.56094720  0.24747951  0.43596355     1.04600
Cu2048     Cu  0.00807871  0.24867170  0.43823584     1.04300
C2049       C  0.53883757  0.24890785  0.47441439     0.92600
C2050       C  0.52981344  0.24626354  0.39992998     0.91800
C2051       C  0.53501322  0.30762653  0.43593143     0.83900
C2052       C  0.53347048  0.18831452  0.43789245     0.90200
O2053       O  0.73438929  0.51211301  0.40962727    -0.73600
O2054       O  0.72914419  0.50931887  0.46610426    -0.74600
O2055       O  0.73157181  0.46512957  0.43684970    -0.63200
O2056       O  0.73000905  0.05590987  0.44022333    -0.71600
O2057       O  0.68003251  0.05611436  0.43820363    -0.71100
O2058       O  0.68165030  0.46542663  0.43485018    -0.62400
O2059       O  0.67927110  0.50931352  0.46452217    -0.74900
O2060       O  0.68452516  0.51181015  0.40711408    -0.73700
Cu2061     Cu  0.73321138  0.51074285  0.43785625     1.04600
Cu2062     Cu  0.67987181  0.51060942  0.43565586     1.04300
C2063       C  0.71062303  0.51233986  0.39943427     0.92600
C2064       C  0.70359069  0.50861236  0.47435585     0.91800
C2065       C  0.70652022  0.45093076  0.43556638     0.83900
C2066       C  0.70505207  0.07031270  0.43919602     0.90200
O2067       O  0.67997271  0.21488767  0.43434432    -0.73600
O2068       O  0.68079178  0.30555858  0.43441197    -0.74600
O2069       O  0.68546961  0.26001413  0.40595552    -0.63200
O2070       O  0.67611025  0.25917700  0.46296836    -0.71600
O2071       O  0.72561334  0.26106218  0.46551863    -0.71100
O2072       O  0.73517041  0.25923685  0.40963346    -0.62400
O2073       O  0.73063545  0.30561895  0.43698524    -0.74900
O2074       O  0.72975087  0.21471354  0.43795578    -0.73700
Cu2075     Cu  0.67879973  0.26006090  0.43429799     1.04600
Cu2076     Cu  0.73192882  0.26019115  0.43764311     1.04300
C2077       C  0.70475479  0.20056580  0.43629976     0.92600
C2078       C  0.70572698  0.31995750  0.43550375     0.91800
C2079       C  0.71204062  0.25934293  0.39892649     0.83900
C2080       C  0.69979830  0.25908665  0.47332231     0.90200
O2081       O  0.95516636  0.42056249  0.09510980    -0.73600
O2082       O  0.54533076  0.42072133  0.09331073    -0.74600
O2083       O  0.50101180  0.42439898  0.12235577    -0.63200
O2084       O  0.49881444  0.41752101  0.06558244    -0.71600
O2085       O  0.49990207  0.96845246  0.06560561    -0.71100
O2086       O  0.50080824  0.97411673  0.12177403    -0.62400
O2087       O  0.54581532  0.97254089  0.09366724    -0.74900
O2088       O  0.95485217  0.96886590  0.09444126    -0.73700
Cu2089     Cu  0.50012062  0.41912163  0.09410884     1.04600
Cu2090     Cu  0.00012050  0.97252859  0.09395602     1.04300
C2091       C  0.94050974  0.44526700  0.09403378     0.92600
C2092       C  0.55966414  0.44561736  0.09240355     0.91800
C2093       C  0.50005469  0.45058587  0.12985306     0.83900
C2094       C  0.49857589  0.44141085  0.05553486     0.90200
O2095       O  0.50554094  0.28229683  0.06380898    -0.73600
O2096       O  0.50271909  0.27584806  0.12005555    -0.74600
O2097       O  0.95867427  0.27965628  0.09090050    -0.63200
O2098       O  0.54935968  0.27826638  0.09293393    -0.71600
O2099       O  0.55017001  0.32813963  0.09530052    -0.71100
O2100       O  0.95942283  0.32947365  0.09320052    -0.62400
O2101       O  0.50345970  0.32563264  0.12273291    -0.74900
O2102       O  0.50666789  0.33206982  0.06598026    -0.73700
Cu2103     Cu  0.50396447  0.27740900  0.09187486     1.04600
Cu2104     Cu  0.50488762  0.33066929  0.09440384     1.04300
C2105       C  0.50693441  0.30811942  0.05595803     0.92600
C2106       C  0.50296926  0.29950705  0.13029205     0.91800
C2107       C  0.94469406  0.30481475  0.09177779     0.83900
C2108       C  0.56403079  0.30294030  0.09435488     0.90200
O2109       O  0.75300656  0.96659347  0.06636011    -0.73600
O2110       O  0.75189454  0.97449477  0.12227171    -0.74600
O2111       O  0.79777606  0.96874748  0.09499681    -0.63200
O2112       O  0.70701056  0.97195992  0.09402882    -0.71600
O2113       O  0.70496620  0.41998138  0.09499388    -0.71100
O2114       O  0.79538053  0.42018101  0.09776492    -0.62400
O2115       O  0.74843982  0.42599226  0.12441440    -0.74900
O2116       O  0.75225770  0.41421205  0.06813600    -0.73700
Cu2117     Cu  0.75245808  0.97210916  0.09430222     1.04600
Cu2118     Cu  0.75022545  0.41835138  0.09645594     1.04300
C2119       C  0.75294572  0.43728196  0.05741316     0.92600
C2120       C  0.74879279  0.45271383  0.13114354     0.91800
C2121       C  0.80995378  0.44478286  0.09578825     0.83900
C2122       C  0.69072038  0.44483525  0.09313430     0.90200
O2123       O  0.75081024  0.32878263  0.06559711    -0.73600
O2124       O  0.75541907  0.32477411  0.12227846    -0.74600
O2125       O  0.79856009  0.32856747  0.09263543    -0.63200
O2126       O  0.70822045  0.32592071  0.09508210    -0.71600
O2127       O  0.70908086  0.27596985  0.09342572    -0.71100
O2128       O  0.80015534  0.27868393  0.09125458    -0.62400
O2129       O  0.75643250  0.27488718  0.12031811    -0.74900
O2130       O  0.75259370  0.27894383  0.06423693    -0.73700
Cu2131     Cu  0.75325789  0.32875011  0.09395592     1.04600
Cu2132     Cu  0.75466033  0.27539706  0.09226406     1.04300
C2133       C  0.75079686  0.30439208  0.05599360     0.92600
C2134       C  0.75624239  0.29891367  0.13017462     0.91800
C2135       C  0.81370182  0.30413382  0.09165104     0.83900
C2136       C  0.69438970  0.30072536  0.09447582     0.90200
O2137       O  0.00395471  0.99110875  0.21526723    -0.73600
O2138       O  0.00291658  0.97934658  0.15960377    -0.74600
O2139       O  0.95789931  0.98862015  0.18680026    -0.63200
O2140       O  0.54811240  0.98248262  0.18715282    -0.71600
O2141       O  0.54416839  0.43717686  0.18939349    -0.71100
O2142       O  0.95295192  0.43713345  0.18933929    -0.62400
O2143       O  0.99889417  0.43077635  0.16133562    -0.74900
O2144       O  0.99883473  0.44338562  0.21770975    -0.73700
Cu2145     Cu  0.00326018  0.98672303  0.18724721     1.04600
Cu2146     Cu  0.99859133  0.43525547  0.18964229     1.04300
C2147       C  0.00091479  0.46995548  0.22457576     0.92600
C2148       C  0.99882900  0.45384014  0.15060569     0.91800
C2149       C  0.93886843  0.46216209  0.18772582     0.83900
C2150       C  0.55829395  0.46192446  0.18678702     0.90200
O2151       O  0.50521114  0.30582682  0.21826552    -0.73600
O2152       O  0.50349264  0.31911370  0.16173304    -0.74600
O2153       O  0.95910007  0.31138835  0.19027307    -0.63200
O2154       O  0.54953808  0.31446049  0.18976112    -0.71600
O2155       O  0.55113082  0.26518353  0.18461234    -0.71100
O2156       O  0.96022480  0.26177024  0.18684320    -0.62400
O2157       O  0.50368592  0.26954101  0.15781661    -0.74900
O2158       O  0.50837092  0.25673199  0.21349274    -0.73700
Cu2159     Cu  0.50427011  0.31448441  0.19015727     1.04600
Cu2160     Cu  0.50587633  0.26168260  0.18552526     1.04300
C2161       C  0.50756873  0.27902676  0.22480118     0.92600
C2162       C  0.50324756  0.29606766  0.15090870     0.91800
C2163       C  0.94530698  0.28626706  0.18873197     0.83900
C2164       C  0.56462187  0.29033829  0.18708922     0.90200
O2165       O  0.74825051  0.45117824  0.21874699    -0.73600
O2166       O  0.74775230  0.43523692  0.16281235    -0.74600
O2167       O  0.79323081  0.44194218  0.19069640    -0.63200
O2168       O  0.70281745  0.44342794  0.19072051    -0.71600
O2169       O  0.70404330  0.98766054  0.18736284    -0.71100
O2170       O  0.79476740  0.99208912  0.18665018    -0.62400
O2171       O  0.74927083  0.98237581  0.15958765    -0.74900
O2172       O  0.74889441  0.99816621  0.21505005    -0.73700
Cu2173     Cu  0.74800845  0.44128072  0.19095105     1.04600
Cu2174     Cu  0.74922227  0.99177793  0.18703958     1.04300
C2175       C  0.74680795  0.47812439  0.22507954     0.92600
C2176       C  0.74853954  0.45762963  0.15156535     0.91800
C2177       C  0.80796164  0.46633449  0.18841774     0.83900
C2178       C  0.68846875  0.46786263  0.18758122     0.90200
O2179       O  0.75212816  0.25974522  0.21395254    -0.73600
O2180       O  0.75577481  0.26993089  0.15804781    -0.74600
O2181       O  0.79942567  0.26332521  0.18698482    -0.63200
O2182       O  0.70892052  0.26646617  0.18493825    -0.71600
O2183       O  0.71011072  0.31602219  0.18885995    -0.71100
O2184       O  0.80083122  0.31305872  0.18993066    -0.62400
O2185       O  0.75638987  0.31967005  0.16116861    -0.74900
O2186       O  0.75422250  0.30931316  0.21750394    -0.73700
Cu2187     Cu  0.75407178  0.26318203  0.18584696     1.04600
Cu2188     Cu  0.75550913  0.31627178  0.18948569     1.04300
C2189       C  0.75220450  0.28292514  0.22459030     0.92600
C2190       C  0.75631362  0.29619478  0.15075491     0.91800
C2191       C  0.81444803  0.28775134  0.18861829     0.83900
C2192       C  0.69519763  0.29159748  0.18686011     0.90200
O2193       O  0.49749738  0.41561702  0.96388025    -0.73600
O2194       O  0.50039174  0.42243965  0.90674709    -0.74600
O2195       O  0.54407968  0.41436776  0.93663333    -0.63200
O2196       O  0.95428156  0.42366935  0.93461064    -0.71600
O2197       O  0.95757848  0.97243793  0.93989127    -0.71100
O2198       O  0.54867175  0.96797170  0.93931430    -0.62400
O2199       O  0.50240852  0.97399106  0.91148612    -0.74900
O2200       O  0.50355469  0.96790218  0.96773501    -0.73700
Cu2201     Cu  0.49897034  0.41714023  0.93526169     1.04600
Cu2202     Cu  0.50326202  0.97239974  0.93963181     1.04300
C2203       C  0.50224959  0.94227604  0.97581474     0.92600
C2204       C  0.50049348  0.95046791  0.90129431     0.91800
C2205       C  0.56171011  0.94227475  0.93841713     0.83900
C2206       C  0.94229629  0.94805989  0.93891506     0.90200
O2207       O  0.50104370  0.31905649  0.90738005    -0.73600
O2208       O  0.50718969  0.33019831  0.96378727    -0.74600
O2209       O  0.54931209  0.32330184  0.93402042    -0.63200
O2210       O  0.95866928  0.32619768  0.93715367    -0.71600
O2211       O  0.95761585  0.27657689  0.94065799    -0.71100
O2212       O  0.54818560  0.27372960  0.93788884    -0.62400
O2213       O  0.50559613  0.28064530  0.96724869    -0.74900
O2214       O  0.50021871  0.26950741  0.91131813    -0.75300
Cu2215     Cu  0.50408375  0.32646078  0.93544619     1.04600
Cu2216     Cu  0.50283999  0.27345990  0.93940447     1.04300
C2217       C  0.49975826  0.29241822  0.90050846     0.92600
C2218       C  0.50747700  0.30699317  0.97441804     0.91800
C2219       C  0.56304133  0.29811610  0.93567441     0.83900
C2220       C  0.94381290  0.30176960  0.93925119     0.90200
O2221       O  0.70536481  0.96594462  0.94153413    -0.73600
O2222       O  0.79611596  0.97241039  0.94084471    -0.74600
O2223       O  0.74971954  0.97323700  0.91325771    -0.63200
O2224       O  0.75172476  0.96579699  0.96928296    -0.71600
O2225       O  0.75566791  0.41181658  0.96581252    -0.71100
O2226       O  0.75065847  0.42066852  0.90904957    -0.62400
O2227       O  0.79822512  0.42097245  0.93622207    -0.74900
O2228       O  0.70804327  0.41188913  0.93899922    -0.73700
Cu2229     Cu  0.75058564  0.97102213  0.94131820     1.04600
Cu2230     Cu  0.75331004  0.41459073  0.93737465     1.04300
C2231       C  0.69256938  0.94016905  0.94042529     0.92600
C2232       C  0.81176416  0.94832209  0.93939106     0.91800
C2233       C  0.75069902  0.94990901  0.90278316     0.83900
C2234       C  0.75350914  0.43519727  0.97624305     0.90200
O2235       O  0.75398168  0.31652527  0.90798543    -0.73600
O2236       O  0.75004603  0.32555688  0.96431838    -0.74600
O2237       O  0.79753534  0.32310092  0.93744647    -0.63200
O2238       O  0.70735091  0.31973186  0.93491173    -0.71600
O2239       O  0.70830878  0.27005659  0.93830495    -0.71100
O2240       O  0.79951634  0.27338350  0.94010678    -0.62400
O2241       O  0.75226461  0.27589438  0.96719926    -0.74900
O2242       O  0.75497787  0.26681916  0.91119751    -0.73700
Cu2243     Cu  0.75226444  0.32292370  0.93605297     1.04600
Cu2244     Cu  0.75392048  0.26978740  0.93930662     1.04300
C2245       C  0.75429319  0.29013403  0.90074376     0.92600
C2246       C  0.75025820  0.30201522  0.97463680     0.91800
C2247       C  0.81288088  0.29888711  0.93908297     0.83900
C2248       C  0.69354136  0.29463846  0.93639006     0.90200
O2249       O  0.56206697  0.99449980  0.62253423    -0.73600
O2250       O  0.56436599  0.99206249  0.56526151    -0.74600
O2251       O  0.56321834  0.03798838  0.59297351    -0.63200
O2252       O  0.56583920  0.44703695  0.59354613    -0.71600
O2253       O  0.01546923  0.44776860  0.59200125    -0.71100
O2254       O  0.01276457  0.03842306  0.59259297    -0.62400
O2255       O  0.01679889  0.49257589  0.56353449    -0.74900
O2256       O  0.01393234  0.49389559  0.61974888    -0.73700
Cu2257     Cu  0.56529001  0.99304735  0.59385256     1.04600
Cu2258     Cu  0.01396565  0.49321702  0.59162360     1.04300
C2259       C  0.53629910  0.99461222  0.63066270     0.92600
C2260       C  0.54229173  0.49155657  0.55496002     0.91800
C2261       C  0.53825985  0.05231889  0.59269828     0.83900
C2262       C  0.54084449  0.43278358  0.59288420     0.90200
O2263       O  0.56283437  0.24178569  0.62300414    -0.73600
O2264       O  0.56735957  0.24403017  0.56576745    -0.74600
O2265       O  0.56556381  0.28791568  0.59504312    -0.63200
O2266       O  0.56525021  0.19754337  0.59342768    -0.71600
O2267       O  0.01510507  0.19818927  0.59247121    -0.71100
O2268       O  0.01530029  0.28876524  0.59295734    -0.62400
O2269       O  0.01721943  0.24409397  0.56449853    -0.74900
O2270       O  0.01264403  0.24322345  0.62089110    -0.73700
Cu2271     Cu  0.56703160  0.24274066  0.59438821     1.04600
Cu2272     Cu  0.01340420  0.24351102  0.59265840     1.04300
C2273       C  0.53688977  0.24232527  0.63089308     0.92600
C2274       C  0.54288545  0.24450152  0.55614685     0.91800
C2275       C  0.54067903  0.30235326  0.59402154     0.83900
C2276       C  0.54028276  0.18322747  0.59271537     0.90200
O2277       O  0.68407863  0.04978236  0.59645649    -0.73600
O2278       O  0.68543970  0.45987518  0.59568715    -0.74600
O2279       O  0.68910505  0.50560905  0.62400944    -0.63200
O2280       O  0.68252405  0.50490070  0.56681199    -0.71600
O2281       O  0.73028327  0.00453033  0.56572008    -0.71100
O2282       O  0.73895649  0.50521653  0.62179313    -0.62400
O2283       O  0.73534832  0.45925890  0.59360828    -0.74900
O2284       O  0.73394243  0.05045436  0.59386030    -0.73700
Cu2285     Cu  0.68401720  0.50518796  0.59551645     1.04600
Cu2286     Cu  0.73623982  0.00507284  0.59401323     1.04300
C2287       C  0.70877684  0.06440496  0.59510776     0.92600
C2288       C  0.71022086  0.44523853  0.59473609     0.91800
C2289       C  0.71513402  0.50556653  0.63188739     0.83900
C2290       C  0.70645760  0.50472409  0.55677152     0.90200
O2291       O  0.73441172  0.25303494  0.62082251    -0.73600
O2292       O  0.72721180  0.25634956  0.56438887    -0.74600
O2293       O  0.73165311  0.29980414  0.59358075    -0.63200
O2294       O  0.73045625  0.20916587  0.59171471    -0.71600
O2295       O  0.68068329  0.20926537  0.59481279    -0.71100
O2296       O  0.68169318  0.30036757  0.59486091    -0.62400
O2297       O  0.67777839  0.25447315  0.56621458    -0.74900
O2298       O  0.68456156  0.25454079  0.62317507    -0.73700
Cu2299     Cu  0.73258434  0.25455642  0.59253053     1.04600
Cu2300     Cu  0.67940774  0.25473412  0.59482521     1.04300
C2301       C  0.71064034  0.25345867  0.63092266     0.92600
C2302       C  0.70158784  0.25541116  0.55613144     0.91800
C2303       C  0.70688617  0.31443706  0.59443631     0.83900
C2304       C  0.70556226  0.19489329  0.59330857     0.90200
C2305       C  0.69186974  0.39625451  0.58140601    -0.02500
C2306       C  0.70959643  0.41179340  0.59473225     0.07200
C2307       C  0.72641351  0.39525981  0.60804527    -0.02600
C2308       C  0.72537761  0.36346580  0.60806303    -0.02600
C2309       C  0.70752453  0.34792312  0.59475002     0.07300
C2310       C  0.69095626  0.36451492  0.58136598    -0.02800
Br2311     Br  0.66867774  0.34383830  0.56200408    -0.01300
Br2312     Br  0.67008522  0.41838797  0.56240468    -0.01400
Br2313     Br  0.74769197  0.34133942  0.62683228    -0.01400
Br2314     Br  0.74990687  0.41612393  0.62684022    -0.01400
C2315       C  0.71844046  0.14509907  0.57866931    -0.02500
C2316       C  0.70573213  0.16146983  0.59364499     0.07200
C2317       C  0.69393809  0.14578712  0.60916475    -0.02600
C2318       C  0.69480897  0.11402691  0.60963586    -0.02600
C2319       C  0.70810134  0.09775618  0.59478733     0.07300
C2320       C  0.72012522  0.11343442  0.57937482    -0.02800
Br2321     Br  0.73783883  0.09148994  0.55876442    -0.01300
Br2322     Br  0.73163354  0.16580864  0.55650723    -0.01400
Br2323     Br  0.67897520  0.09291328  0.63107889    -0.01400
Br2324     Br  0.67783715  0.16778337  0.63023705    -0.01400
C2325       C  0.52315430  0.38376220  0.60640478    -0.02500
C2326       C  0.54091284  0.39940186  0.59323603     0.07200
C2327       C  0.05831051  0.38359176  0.58044254    -0.02600
C2328       C  0.05829137  0.35186562  0.58073828    -0.02600
C2329       C  0.54093623  0.33568333  0.59388132     0.07300
C2330       C  0.52314329  0.35203063  0.60671082    -0.02800
Br2331     Br  0.49969801  0.33103321  0.62533344    -0.01300
Br2332     Br  0.49992173  0.40569422  0.62475132    -0.01400
Br2333     Br  0.08124880  0.32986998  0.56226942    -0.01400
Br2334     Br  0.08171982  0.40441122  0.56171799    -0.01400
C2335       C  0.05922853  0.13380052  0.60449579    -0.02500
C2336       C  0.54025225  0.14973160  0.59239150     0.07200
C2337       C  0.52102225  0.13395187  0.57996807    -0.02600
C2338       C  0.51969185  0.10221558  0.58039146    -0.02600
C2339       C  0.53862148  0.08581145  0.59266410     0.07300
C2340       C  0.05856783  0.10206834  0.60448610    -0.02800
Br2341     Br  0.08497356  0.08051365  0.62144579    -0.01300
Br2342     Br  0.08587616  0.15438402  0.62175287    -0.01400
Br2343     Br  0.49272936  0.08148405  0.56339369    -0.01400
Br2344     Br  0.49826001  0.15553754  0.56114510    -0.01400
C2345       C  0.89467560  0.28787309  0.95434945    -0.02500
C2346       C  0.91033931  0.30244629  0.93976911     0.07200
C2347       C  0.89387559  0.31679491  0.92535548    -0.02600
C2348       C  0.86206536  0.31629292  0.92542680    -0.02600
C2349       C  0.84638227  0.30051871  0.93955174     0.07300
C2350       C  0.86287064  0.28649887  0.95409545    -0.02800
Br2351     Br  0.84198265  0.26652421  0.97424008    -0.01300
Br2352     Br  0.91675763  0.27120692  0.97529362    -0.01400
Br2353     Br  0.84018376  0.33617443  0.90551753    -0.01400
Br2354     Br  0.91475836  0.33544416  0.90468922    -0.01400
C2355       C  0.64454686  0.31342972  0.94893620    -0.02500
C2356       C  0.66016270  0.29459905  0.93632699     0.07200
C2357       C  0.64379678  0.27690046  0.92338527    -0.02600
C2358       C  0.61200038  0.27831561  0.92296438    -0.02600
C2359       C  0.59643066  0.29727039  0.93555570     0.07300
C2360       C  0.61286403  0.31487603  0.94850238    -0.02800
Br2361     Br  0.59209098  0.34004932  0.96636750    -0.01300
Br2362     Br  0.66647005  0.33606485  0.96765725    -0.01400
Br2363     Br  0.58988040  0.25553495  0.90441419    -0.01400
Br2364     Br  0.66486537  0.25168058  0.90567815    -0.01400
C2365       C  0.86108906  0.42634092  0.94820944    -0.02500
C2366       C  0.84511510  0.94974178  0.93960504     0.07200
C2367       C  0.86091755  0.96572192  0.92567503    -0.02600
C2368       C  0.89276290  0.96529149  0.92542203    -0.02600
C2369       C  0.90891347  0.94912366  0.93920846     0.07300
C2370       C  0.89275927  0.42706496  0.94790463    -0.02800
Br2371     Br  0.91460219  0.39640270  0.96156621    -0.01300
Br2372     Br  0.84144846  0.39475215  0.96220279    -0.01400
Br2373     Br  0.91415279  0.98484500  0.90533071    -0.01400
Br2374     Br  0.83896604  0.98683014  0.90634517    -0.01400
C2375       C  0.64322979  0.92189265  0.92682278    -0.02500
C2376       C  0.65909788  0.93832067  0.94068587     0.07200
C2377       C  0.64170445  0.45200942  0.95365673    -0.02600
C2378       C  0.60992687  0.45280861  0.95291436    -0.02600
C2379       C  0.59517426  0.94035340  0.93927473     0.07300
C2380       C  0.61141177  0.92317031  0.92600391    -0.02800
Br2381     Br  0.59038391  0.90284018  0.90589205    -0.01300
Br2382     Br  0.66485192  0.89827929  0.90848768    -0.01400
Br2383     Br  0.58827518  0.47714432  0.97089921    -0.01400
Br2384     Br  0.66253649  0.47558857  0.97248039    -0.01400
C2385       C  0.89551451  0.27071025  0.17477591    -0.02500
C2386       C  0.91180969  0.28579776  0.18901371     0.07200
C2387       C  0.89591580  0.30133231  0.20319551    -0.02600
C2388       C  0.86411847  0.30127319  0.20332388    -0.02600
C2389       C  0.84788373  0.28676793  0.18887419     0.07300
C2390       C  0.86371673  0.27166762  0.17452792    -0.02800
Br2391     Br  0.84199938  0.25407390  0.15370545    -0.01300
Br2392     Br  0.91656253  0.25013694  0.15485109    -0.01400
Br2393     Br  0.84284101  0.31973138  0.22394628    -0.01400
Br2394     Br  0.91748888  0.32208149  0.22292674    -0.01400
C2395       C  0.61363089  0.31168544  0.17556234    -0.02500
C2396       C  0.59798385  0.29140019  0.18722964     0.07200
C2397       C  0.61430785  0.27227223  0.19932574    -0.02600
C2398       C  0.64604940  0.27236364  0.19914926    -0.02600
C2399       C  0.66178217  0.29213613  0.18717637     0.07300
C2400       C  0.64543607  0.31227015  0.17567127    -0.02800
Br2401     Br  0.66640802  0.33999008  0.15948109    -0.01300
Br2402     Br  0.59162299  0.33788557  0.15880436    -0.01400
Br2403     Br  0.66782298  0.24646347  0.21623570    -0.01400
Br2404     Br  0.59321239  0.24743473  0.21720939    -0.01400
C2405       C  0.88846975  0.44558791  0.17496804    -0.02500
C2406       C  0.90535336  0.46286329  0.18790974     0.07200
C2407       C  0.89241581  0.99267100  0.19485735    -0.02600
C2408       C  0.86060630  0.99325513  0.19510873    -0.02600
C2409       C  0.84142714  0.46532125  0.18811199     0.07300
C2410       C  0.85663238  0.44673714  0.17511036    -0.02800
Br2411     Br  0.83391397  0.42354056  0.15700294    -0.01300
Br2412     Br  0.90886282  0.42151746  0.15634343    -0.01400
Br2413     Br  0.84045244  0.02736513  0.20639050    -0.01400
Br2414     Br  0.91395630  0.02688734  0.20495258    -0.01400
C2415       C  0.60972965  0.97327148  0.17405986    -0.02500
C2416       C  0.59156271  0.46251437  0.18668068     0.07200
C2417       C  0.60780342  0.45372856  0.20273560    -0.02600
C2418       C  0.63942174  0.45605833  0.20307577    -0.02600
C2419       C  0.65508596  0.46730857  0.18741415     0.07300
C2420       C  0.64141455  0.97532568  0.17460409    -0.02800
Br2421     Br  0.66181527  0.99889868  0.15575435    -0.01300
Br2422     Br  0.58773548  0.99345623  0.15425947    -0.01400
Br2423     Br  0.66098341  0.44575967  0.22561575    -0.01400
Br2424     Br  0.58671172  0.44008115  0.22473348    -0.01400
C2425       C  0.72874296  0.28644358  0.02531387    -0.02500
C2426       C  0.74896817  0.30542205  0.03516398     0.07200
C2427       C  0.76808907  0.32473399  0.02494009    -0.02600
C2428       C  0.76788114  0.32430959  0.00520802    -0.02600
C2429       C  0.74840802  0.30470912  0.99537766     0.07300
C2430       C  0.72812384  0.28650752  0.00554820    -0.02800
Br2431     Br  0.69811787  0.26288034  0.99243106    -0.01300
Br2432     Br  0.70122549  0.26060053  0.03872995    -0.01400
Br2433     Br  0.79590579  0.34935515  0.99180830    -0.01400
Br2434     Br  0.79665467  0.35013313  0.03777516    -0.01400
C2435       C  0.77579210  0.95612379  0.02781502    -0.02500
C2436       C  0.75467827  0.43360546  0.03673286     0.07200
C2437       C  0.73111238  0.41938093  0.02676494    -0.02600
C2438       C  0.73136128  0.41868549  0.00698353    -0.02600
C2439       C  0.75500490  0.43249048  0.99698934     0.07300
C2440       C  0.77576566  0.95626807  0.00804972    -0.02800
Br2441     Br  0.80455164  0.98115839  0.99497482    -0.01300
Br2442     Br  0.80577226  0.97943230  0.04119547    -0.01400
Br2443     Br  0.69825303  0.40058332  0.99355612    -0.01400
Br2444     Br  0.69726063  0.40297182  0.04017081    -0.01400
C2445       C  0.89513128  0.29012323  0.07709488    -0.02500
C2446       C  0.91118159  0.30537335  0.09136506     0.07200
C2447       C  0.89506450  0.32103354  0.10536023    -0.02600
C2448       C  0.86325595  0.32145930  0.10509346    -0.02600
C2449       C  0.84719204  0.30532341  0.09120213     0.07300
C2450       C  0.86329119  0.28999137  0.07706519    -0.02800
Br2451     Br  0.84174741  0.27027842  0.05693099    -0.01300
Br2452     Br  0.91666113  0.27045506  0.05702434    -0.01400
Br2453     Br  0.84188209  0.34335158  0.12433261    -0.01400
Br2454     Br  0.91640361  0.34007871  0.12583524    -0.01400
C2455       C  0.64489851  0.28654209  0.10900771    -0.02500
C2456       C  0.66105323  0.30060290  0.09447186     0.07200
C2457       C  0.64528076  0.31549872  0.08002422    -0.02600
C2458       C  0.61358700  0.31686010  0.08025481    -0.02600
C2459       C  0.59736348  0.30236676  0.09458650     0.07300
C2460       C  0.61308131  0.28705831  0.10892189    -0.02800
Br2461     Br  0.59103573  0.26786164  0.12886385    -0.01300
Br2462     Br  0.66634701  0.26792174  0.12950489    -0.01400
Br2463     Br  0.59245350  0.33779296  0.06050092    -0.01400
Br2464     Br  0.66705627  0.33264225  0.05927864    -0.01400
C2465       C  0.99059053  0.32982444  0.00509589    -0.02500
C2466       C  0.50977631  0.31015817  0.99521709     0.07200
C2467       C  0.53013147  0.29192424  0.00543307    -0.02600
C2468       C  0.52966146  0.29176259  0.02521073    -0.02600
C2469       C  0.50895393  0.31003523  0.03510698     0.07300
C2470       C  0.99001128  0.32954475  0.02487620    -0.02800
Br2471     Br  0.96094686  0.35421083  0.03779501    -0.01300
Br2472     Br  0.96352843  0.35613229  0.99176058    -0.01400
Br2473     Br  0.55827371  0.26697991  0.03865064    -0.01400
Br2474     Br  0.55998942  0.26822959  0.99235166    -0.01400
C2475       C  0.89072935  0.42345299  0.08444734    -0.02500
C2476       C  0.90714747  0.44478737  0.09501219     0.07200
C2477       C  0.89256868  0.95900163  0.11031920    -0.02600
C2478       C  0.86077308  0.95871944  0.11064710    -0.02600
C2479       C  0.84335695  0.44438972  0.09604181     0.07300
C2480       C  0.85907009  0.42316927  0.08504302    -0.02800
Br2481     Br  0.83748376  0.39443905  0.06981806    -0.01300
Br2482     Br  0.91120485  0.39524678  0.06827528    -0.01400
Br2483     Br  0.83943273  0.97967165  0.13028756    -0.01400
Br2484     Br  0.91443812  0.98138121  0.12918639    -0.01400
C2485       C  0.61033745  0.93341779  0.10941041    -0.02500
C2486       C  0.59317782  0.44546009  0.09255502     0.07200
C2487       C  0.60947371  0.46232223  0.07923304    -0.02600
C2488       C  0.64128738  0.46187781  0.07928984    -0.02600
C2489       C  0.65718361  0.44495375  0.09286577     0.07300
C2490       C  0.64213568  0.93304804  0.10941728    -0.02800
Br2491     Br  0.66336906  0.91264159  0.12936613    -0.01300
Br2492     Br  0.58874767  0.91430899  0.12962754    -0.01400
Br2493     Br  0.66286719  0.48328318  0.05997667    -0.01400
Br2494     Br  0.58837721  0.48498091  0.06016885    -0.01400
C2495       C  0.47886938  0.95726194  0.00656467    -0.02500
C2496       C  0.50125637  0.94101607  0.99672084     0.07200
C2497       C  0.02118978  0.42328269  0.00525190    -0.02600
C2498       C  0.02104389  0.42384748  0.02506218    -0.02600
C2499       C  0.50039688  0.94122624  0.03662114     0.07300
C2500       C  0.47796340  0.95666449  0.02632735    -0.02800
Br2501     Br  0.44510753  0.97619813  0.03927163    -0.01300
Br2502     Br  0.44903689  0.98043928  0.99305613    -0.01400
Br2503     Br  0.05372344  0.40544955  0.03878615    -0.01400
Br2504     Br  0.05372243  0.40369760  0.99218864    -0.01400
C2505       C  0.67293805  0.26555927  0.50503093    -0.02500
C2506       C  0.69826092  0.25607018  0.49442887     0.07200
C2507       C  0.72308502  0.24350913  0.50428052    -0.02600
C2508       C  0.72477732  0.24477646  0.52403291    -0.02600
C2509       C  0.69986291  0.25507020  0.53484713     0.07300
C2510       C  0.67342091  0.26433852  0.52494623    -0.02800
Br2511     Br  0.63726304  0.27631632  0.53810841    -0.01300
Br2512     Br  0.63693284  0.28026625  0.49265939    -0.01400
Br2513     Br  0.76227158  0.23170770  0.53548995    -0.01400
Br2514     Br  0.75384373  0.22080554  0.49107345    -0.01400
C2515       C  0.68707124  0.36974472  0.44763871    -0.02500
C2516       C  0.70569286  0.35348294  0.43519938     0.07200
C2517       C  0.72413084  0.36942124  0.42249048    -0.02600
C2518       C  0.72401884  0.40124778  0.42233826    -0.02600
C2519       C  0.70606642  0.41744280  0.43519896     0.07300
C2520       C  0.68732828  0.40149598  0.44769331    -0.02800
Br2521     Br  0.66275384  0.42300360  0.46559137    -0.01300
Br2522     Br  0.66225282  0.34866222  0.46546871    -0.01400
Br2523     Br  0.74678380  0.42257387  0.40353530    -0.01400
Br2524     Br  0.74861403  0.34779567  0.40461889    -0.01400
C2525       C  0.71672600  0.15047391  0.42200757    -0.02500
C2526       C  0.70442133  0.16732056  0.43687225     0.07200
C2527       C  0.69170494  0.15234403  0.45232140    -0.02600
C2528       C  0.69257318  0.12066475  0.45329527    -0.02600
C2529       C  0.70509120  0.10369584  0.43853305     0.07300
C2530       C  0.71672710  0.11872962  0.42272576    -0.02800
Br2531     Br  0.73124101  0.09584531  0.40160803    -0.01300
Br2532     Br  0.73217455  0.17098640  0.40025558    -0.01400
Br2533     Br  0.67789942  0.10070468  0.47529069    -0.01400
Br2534     Br  0.67335741  0.17529531  0.47228193    -0.01400
C2535       C  0.72038532  0.48496184  0.50501206    -0.02500
C2536       C  0.70266719  0.50665193  0.49544233     0.07200
C2537       C  0.67665821  0.01856913  0.50750267    -0.02600
C2538       C  0.67865079  0.01905441  0.52735635    -0.02600
C2539       C  0.70438360  0.50487788  0.53566053     0.07300
C2540       C  0.72120937  0.48407029  0.52486419    -0.02800
Br2541     Br  0.74450993  0.45311488  0.53723139    -0.01300
Br2542     Br  0.74271422  0.45523271  0.49092396    -0.01400
Br2543     Br  0.65117947  0.04434105  0.54125577    -0.01400
Br2544     Br  0.64317838  0.03851937  0.49558670    -0.01400
C2545       C  0.02600966  0.27078912  0.50618265    -0.02500
C2546       C  0.54123310  0.24860028  0.49532654     0.07200
C2547       C  0.55819034  0.22604969  0.50460904    -0.02600
C2548       C  0.55954569  0.22517335  0.52442080    -0.02600
C2549       C  0.54360834  0.24655293  0.53523831     0.07300
C2550       C  0.02698663  0.26974715  0.52596112    -0.02800
Br2551     Br  0.00642207  0.30045680  0.54025896    -0.01300
Br2552     Br  0.00448221  0.30306382  0.49389534    -0.01400
Br2553     Br  0.58179472  0.19342861  0.53671207    -0.01400
Br2554     Br  0.57781262  0.19482072  0.49025576    -0.01400
C2555       C  0.55250054  0.38905208  0.44849807    -0.02500
C2556       C  0.53574910  0.40491592  0.43484206     0.07200
C2557       C  0.01987460  0.38893247  0.42131913    -0.02600
C2558       C  0.01986911  0.35711835  0.42151744    -0.02600
C2559       C  0.53551843  0.34105304  0.43532609     0.07300
C2560       C  0.55254104  0.35731347  0.44865751    -0.02800
Br2561     Br  0.57505451  0.33616193  0.46774371    -0.01300
Br2562     Br  0.57412354  0.41071082  0.46780141    -0.01400
Br2563     Br  0.99879214  0.33519783  0.40209455    -0.01400
Br2564     Br  0.99835591  0.41015257  0.40181297    -0.01400
C2565       C  0.04914269  0.10711174  0.42452482    -0.02500
C2566       C  0.53249503  0.09108455  0.43838303     0.07200
C2567       C  0.51620007  0.10748045  0.45196860    -0.02600
C2568       C  0.51691826  0.13924150  0.45200030    -0.02600
C2569       C  0.53300855  0.15490985  0.43804014     0.07300
C2570       C  0.04891539  0.13884319  0.42419511    -0.02800
Br2571     Br  0.06857001  0.15979778  0.40390051    -0.01300
Br2572     Br  0.07063631  0.08541417  0.40522490    -0.01400
Br2573     Br  0.49723093  0.16115593  0.47191167    -0.01400
Br2574     Br  0.49372506  0.08662152  0.47108325    -0.01400
C2575       C  0.02485561  0.47176734  0.50409560    -0.02500
C2576       C  0.54011091  0.49437649  0.49426240     0.07200
C2577       C  0.54979477  0.01837044  0.50570441    -0.02600
C2578       C  0.55110690  0.01731355  0.52545760    -0.02600
C2579       C  0.54251334  0.49188320  0.53407008     0.07300
C2580       C  0.02600960  0.47051706  0.52386064    -0.02800
Br2581     Br  0.00571904  0.43823499  0.53681977    -0.01300
Br2582     Br  0.00264487  0.44139407  0.49041796    -0.01400
Br2583     Br  0.56653871  0.05139992  0.53925380    -0.01400
Br2584     Br  0.56337661  0.05389922  0.49270285    -0.01400
C2585       C  0.72420537  0.29173753  0.27476242    -0.02500
C2586       C  0.74203639  0.27033288  0.28449636     0.07200
C2587       C  0.76444820  0.25433191  0.27447326    -0.02600
C2588       C  0.76802098  0.25870514  0.25499861    -0.02600
C2589       C  0.74928376  0.27912164  0.24523558     0.07300
C2590       C  0.72727948  0.29551822  0.25523904    -0.02800
Br2591     Br  0.69968966  0.32183015  0.24207047    -0.01300
Br2592     Br  0.69698005  0.31794547  0.28823069    -0.01400
Br2593     Br  0.79933035  0.23715133  0.24176929    -0.01400
Br2594     Br  0.79024975  0.22585977  0.28704591    -0.01400
C2595       C  0.74667268  0.40150247  0.33343842    -0.02500
C2596       C  0.72495739  0.41699674  0.34428390     0.07200
C2597       C  0.70395279  0.40047003  0.35499307    -0.02600
C2598       C  0.70487372  0.36878887  0.35501068    -0.02600
C2599       C  0.72609081  0.35338437  0.34384283     0.07300
C2600       C  0.74686300  0.36982997  0.33298282    -0.02800
Br2601     Br  0.77433866  0.34913747  0.31634620    -0.01300
Br2602     Br  0.77533965  0.42324348  0.31818938    -0.01400
Br2603     Br  0.67791551  0.34662879  0.37114592    -0.01400
Br2604     Br  0.67438314  0.42092799  0.37027811    -0.01400
C2605       C  0.70181208  0.11986623  0.34880008    -0.02500
C2606       C  0.72620752  0.10318201  0.34130293     0.07200
C2607       C  0.75145598  0.11896148  0.33416312    -0.02600
C2608       C  0.75170753  0.15074132  0.33382153    -0.02600
C2609       C  0.72686206  0.16742745  0.34072844     0.07300
C2610       C  0.70203128  0.15164314  0.34840566    -0.02800
Br2611     Br  0.66866729  0.17307007  0.35974901    -0.01300
Br2612     Br  0.66883441  0.09967330  0.36131414    -0.01400
Br2613     Br  0.78626459  0.17082492  0.32313912    -0.01400
Br2614     Br  0.78619162  0.09768385  0.32444286    -0.01400
C2615       C  0.72606312  0.46944368  0.27712518    -0.02500
C2616       C  0.73437502  0.49763540  0.28460390     0.07200
C2617       C  0.75092965  0.01820730  0.27417409    -0.02600
C2618       C  0.75592641  0.01128672  0.25506717    -0.02600
C2619       C  0.74423169  0.48425570  0.24586941     0.07300
C2620       C  0.73237643  0.46211592  0.25827442    -0.02800
Br2621     Br  0.72505902  0.42096790  0.25047238    -0.01300
Br2622     Br  0.70565206  0.44052860  0.29283784    -0.01400
Br2623     Br  0.77624120  0.04110524  0.23996904    -0.01400
Br2624     Br  0.76101614  0.05750944  0.28379434    -0.01400
C2625       C  0.52695933  0.29276191  0.25726093    -0.02500
C2626       C  0.50980143  0.27342564  0.24552197     0.07200
C2627       C  0.99613257  0.24783500  0.25375971    -0.02600
C2628       C  0.99988534  0.24159479  0.27304070    -0.02600
C2629       C  0.51597107  0.26113000  0.28459897     0.07300
C2630       C  0.52949188  0.28693416  0.27667893    -0.02800
Br2631     Br  0.55059426  0.31521454  0.29261476    -0.01300
Br2632     Br  0.54883987  0.32643149  0.24688082    -0.01400
Br2633     Br  0.98336052  0.20510790  0.28353566    -0.01400
Br2634     Br  0.97050121  0.22160044  0.23908826    -0.01400
C2635       C  0.99964093  0.35838622  0.33573656    -0.02500
C2636       C  0.52159660  0.34206314  0.34549975     0.07200
C2637       C  0.54363234  0.35804828  0.35587393    -0.02600
C2638       C  0.54361251  0.38977612  0.35597125    -0.02600
C2639       C  0.02223488  0.40610310  0.34566072     0.07300
C2640       C  0.99958411  0.39010721  0.33583638    -0.02800
Br2641     Br  0.96909311  0.41122772  0.32148202    -0.01300
Br2642     Br  0.96974798  0.33748061  0.32076415    -0.01400
Br2643     Br  0.57254887  0.41097255  0.37148658    -0.01400
Br2644     Br  0.57350732  0.33683903  0.37063282    -0.01400
C2645       C  0.54118189  0.10804112  0.32647424    -0.02500
C2646       C  0.02565827  0.09199896  0.33993516     0.07200
C2647       C  0.00881270  0.10812924  0.35342010    -0.02600
C2648       C  0.00831818  0.13989362  0.35327670    -0.02600
C2649       C  0.52364401  0.15596828  0.33969641     0.07300
C2650       C  0.54036942  0.13988107  0.32615524    -0.02800
Br2651     Br  0.56079108  0.16136626  0.30641456    -0.01300
Br2652     Br  0.56415532  0.08670650  0.30773773    -0.01400
Br2653     Br  0.98659972  0.16106189  0.37269864    -0.01400
Br2654     Br  0.98790097  0.08691015  0.37312018    -0.01400
C2655       C  0.52184073  0.45794442  0.27637928    -0.02500
C2656       C  0.01660551  0.48683662  0.28418861     0.07200
C2657       C  0.99992238  0.00698859  0.27450011    -0.02600
C2658       C  0.99486043  0.00081397  0.25535797    -0.02600
C2659       C  0.00450481  0.47512172  0.24545561     0.07300
C2660       C  0.51491905  0.45177480  0.25738340    -0.02800
Br2661     Br  0.51947515  0.41054430  0.24895165    -0.01300
Br2662     Br  0.53803245  0.42656049  0.29225868    -0.01400
Br2663     Br  0.97147272  0.02948691  0.24112629    -0.01400
Br2664     Br  0.98674908  0.04475886  0.28524043    -0.01400
C2665       C  0.85807551  0.28861730  0.82615042    -0.02500
C2666       C  0.84196206  0.27665183  0.84142023     0.07200
C2667       C  0.85791454  0.26433470  0.85676198    -0.02600
C2668       C  0.88972300  0.26475731  0.85704409    -0.02600
C2669       C  0.90585925  0.27664652  0.84174026     0.07300
C2670       C  0.88989724  0.28823670  0.82619670    -0.02800
Br2671     Br  0.91159397  0.30219125  0.80449376    -0.01300
Br2672     Br  0.83651817  0.30445096  0.80478201    -0.01400
Br2673     Br  0.91108907  0.25081266  0.87900350    -0.01400
Br2674     Br  0.83626740  0.24809527  0.87789760    -0.01400
C2675       C  0.60837144  0.26106761  0.83254847    -0.02500
C2676       C  0.59205234  0.28061403  0.84436928     0.07200
C2677       C  0.60772562  0.30039210  0.85645255    -0.02600
C2678       C  0.63953168  0.30039361  0.85684894    -0.02600
C2679       C  0.65586910  0.28076538  0.84506162     0.07300
C2680       C  0.64012071  0.26117054  0.83286594    -0.02800
Br2681     Br  0.66188450  0.23538684  0.81574833    -0.01300
Br2682     Br  0.58732568  0.23514880  0.81508488    -0.01400
Br2683     Br  0.66055081  0.32609653  0.87435506    -0.01400
Br2684     Br  0.58565307  0.32646600  0.87318950    -0.01400
C2685       C  0.88943053  0.45641514  0.85961520    -0.02500
C2686       C  0.90521727  0.96237958  0.84409432     0.07200
C2687       C  0.88896489  0.98364650  0.83334587    -0.02600
C2688       C  0.85719555  0.98358320  0.83332782    -0.02600
C2689       C  0.84119172  0.96295513  0.84451301     0.07300
C2690       C  0.85761675  0.45583483  0.86003567    -0.02800
Br2691     Br  0.83672826  0.45167440  0.88349268    -0.01300
Br2692     Br  0.91230176  0.45389974  0.88255575    -0.01400
Br2693     Br  0.83570872  0.01028858  0.81667058    -0.01400
Br2694     Br  0.90986557  0.01229731  0.81781406    -0.01400
C2695       C  0.63802818  0.44208876  0.85350498    -0.02500
C2696       C  0.65500149  0.96302441  0.84639642     0.07200
C2697       C  0.63963824  0.95131894  0.83067266    -0.02600
C2698       C  0.60798346  0.95018335  0.83035900    -0.02600
C2699       C  0.59130264  0.96187620  0.84545175     0.07300
C2700       C  0.60633456  0.44193573  0.85252842    -0.02800
Br2701     Br  0.58420343  0.41209391  0.86650624    -0.01300
Br2702     Br  0.65827758  0.41234635  0.86869079    -0.01400
Br2703     Br  0.58761810  0.93365280  0.80877008    -0.01400
Br2704     Br  0.66174266  0.93840027  0.80892274    -0.01400
C2705       C  0.71672274  0.28505487  0.77636155    -0.02500
C2706       C  0.73932419  0.26849753  0.78587681     0.07200
C2707       C  0.75714995  0.24788230  0.77566576    -0.02600
C2708       C  0.75232348  0.24365421  0.75626223    -0.02600
C2709       C  0.73002037  0.26050810  0.74663639     0.07300
C2710       C  0.71230069  0.28133141  0.75687551    -0.02800
Br2711     Br  0.68279753  0.30621938  0.74424381    -0.01300
Br2712     Br  0.69070547  0.31215500  0.79008824    -0.01400
Br2713     Br  0.77564556  0.21353982  0.74317232    -0.01400
Br2714     Br  0.78945834  0.22640763  0.78804207    -0.01400
C2715       C  0.73684316  0.36250997  0.70156751    -0.02500
C2716       C  0.71897456  0.34717646  0.68823756     0.07200
C2717       C  0.70160144  0.36372612  0.67524382    -0.02600
C2718       C  0.70243333  0.39545743  0.67543305    -0.02600
C2719       C  0.72103217  0.41077126  0.68841616     0.07300
C2720       C  0.73825066  0.39417312  0.70148208    -0.02800
Br2721     Br  0.76278624  0.41467100  0.71993939    -0.01300
Br2722     Br  0.75782507  0.34019965  0.72085236    -0.01400
Br2723     Br  0.67896486  0.41784513  0.65733558    -0.01400
Br2724     Br  0.67752138  0.34301968  0.65668053    -0.01400
C2725       C  0.73639811  0.11300584  0.67673996    -0.02500
C2726       C  0.72214144  0.09725511  0.69144844     0.07200
C2727       C  0.70692681  0.11369148  0.70550435    -0.02600
C2728       C  0.70675419  0.14550036  0.70515248    -0.02600
C2729       C  0.72116222  0.16119972  0.69050342     0.07300
C2730       C  0.73593320  0.14477199  0.67628303    -0.02800
Br2731     Br  0.75446960  0.16567418  0.65558530    -0.01300
Br2732     Br  0.75496516  0.09114821  0.65638934    -0.01400
Br2733     Br  0.68840668  0.16755175  0.72549144    -0.01400
Br2734     Br  0.68706223  0.09280888  0.72568633    -0.01400
C2735       C  0.74636426  0.01584673  0.76057911    -0.02500
C2736       C  0.73446396  0.99383571  0.74844641     0.07200
C2737       C  0.71580529  0.46944104  0.75675510    -0.02600
C2738       C  0.72000831  0.46281782  0.77599986    -0.02600
C2739       C  0.74319926  0.98080469  0.78751286     0.07300
C2740       C  0.75039450  0.00972298  0.77992759    -0.02800
Br2741     Br  0.76742581  0.04147288  0.79522434    -0.01300
Br2742     Br  0.75601298  0.05508563  0.75058949    -0.01400
Br2743     Br  0.69456261  0.43284444  0.78758270    -0.01400
Br2744     Br  0.68840602  0.44495172  0.74215222    -0.01400
C2745       C  0.53126369  0.27743473  0.75613566    -0.02500
C2746       C  0.01415084  0.25547712  0.74646234     0.07200
C2747       C  0.99296566  0.23823360  0.75665531    -0.02600
C2748       C  0.98873157  0.24307456  0.77605579    -0.02600
C2749       C  0.50597597  0.26485263  0.78569196     0.07300
C2750       C  0.52744483  0.28186578  0.77560137    -0.02800
Br2751     Br  0.55326636  0.31020365  0.78855836    -0.01300
Br2752     Br  0.55845216  0.30355235  0.74266623    -0.01400
Br2753     Br  0.95838399  0.22019701  0.78921057    -0.01400
Br2754     Br  0.97025933  0.20691936  0.74441072    -0.01400
C2755       C  0.01031211  0.38669551  0.70044943    -0.02500
C2756       C  0.02800598  0.40244998  0.68735031     0.07200
C2757       C  0.54610526  0.38598070  0.67443207    -0.02600
C2758       C  0.54590021  0.35428927  0.67439252    -0.02600
C2759       C  0.02738907  0.33897737  0.68718352     0.07300
C2760       C  0.00977030  0.35503861  0.70025483    -0.02800
Br2761     Br  0.98586287  0.33380366  0.71855991    -0.01300
Br2762     Br  0.98816754  0.40838755  0.71945325    -0.01400
Br2763     Br  0.56972997  0.33262540  0.65621126    -0.01400
Br2764     Br  0.56992264  0.40741538  0.65618163    -0.01400
C2765       C  0.99994574  0.13658046  0.69657298    -0.02500
C2766       C  0.02539326  0.15295708  0.69026853     0.07200
C2767       C  0.55144449  0.13636704  0.68373821    -0.02600
C2768       C  0.55168701  0.10455807  0.68380462    -0.02600
C2769       C  0.02566527  0.08853556  0.69019736     0.07300
C2770       C  0.99999224  0.10477759  0.69644629    -0.02800
Br2771     Br  0.96431897  0.08419702  0.70540956    -0.01300
Br2772     Br  0.96460267  0.15703869  0.70606576    -0.01400
Br2773     Br  0.58680395  0.08412004  0.67387616    -0.01400
Br2774     Br  0.58591090  0.15718501  0.67328472    -0.01400
C2775       C  0.51486011  0.95193116  0.77341573    -0.02500
C2776       C  0.00305747  0.97481300  0.78540395     0.07200
C2777       C  0.98605530  0.49891535  0.77427458    -0.02600
C2778       C  0.99123842  0.50456299  0.75500956    -0.02600
C2779       C  0.01382521  0.98586220  0.74626798     0.07300
C2780       C  0.52139889  0.95786734  0.75435364    -0.02800
Br2781     Br  0.54117060  0.92754597  0.73930980    -0.01300
Br2782     Br  0.52184947  0.91136408  0.78228594    -0.01400
Br2783     Br  0.96902045  0.53628892  0.74266447    -0.01400
Br2784     Br  0.95541578  0.52176164  0.78721883    -0.01400
O2785       O  0.55679136  0.99640672  0.66205963    -0.73600
O2786       O  0.54512130  0.99107952  0.71870426    -0.74600
O2787       O  0.55071999  0.94916970  0.68870127    -0.63200
O2788       O  0.55109670  0.53989791  0.69029007    -0.71600
O2789       O  0.00176276  0.53985731  0.68474751    -0.71100
O2790       O  0.00055004  0.95029238  0.68537891    -0.62400
O2791       O  0.99529803  0.49413217  0.71326601    -0.74900
O2792       O  0.00839640  0.49428872  0.65729627    -0.73700
Cu2793     Cu  0.55262162  0.99421332  0.69059653     1.04600
Cu2794     Cu  0.00033803  0.49455542  0.68501880     1.04300
C2795       C  0.53351985  0.99582284  0.65137278     0.92600
C2796       C  0.01795949  0.49266673  0.72437539     0.91800
C2797       C  0.52569540  0.93531864  0.68649859     0.83900
C2798       C  0.52654459  0.55421387  0.68738859     0.90200
O2799       O  0.00237571  0.70129667  0.68543996    -0.73600
O2800       O  0.00284165  0.79121624  0.68361302    -0.74600
O2801       O  0.00893331  0.74445461  0.65687649    -0.63200
O2802       O  0.99629388  0.74871248  0.71292820    -0.71600
O2803       O  0.54604681  0.74907530  0.71732288    -0.71100
O2804       O  0.55872877  0.74311769  0.66101127    -0.62400
O2805       O  0.55272582  0.79117544  0.68769285    -0.74900
O2806       O  0.55164946  0.70070361  0.69104598    -0.73700
Cu2807     Cu  0.00095396  0.74634658  0.68460197     1.04600
Cu2808     Cu  0.55404764  0.74593463  0.68942058     1.04300
C2809       C  0.02675344  0.68666826  0.68823430     0.92600
C2810       C  0.02757335  0.80565549  0.68536650     0.91800
C2811       C  0.03551176  0.74336171  0.65000519     0.83900
C2812       C  0.01909421  0.75072091  0.72392445     0.90200
O2813       O  0.74506814  0.00650628  0.66093143    -0.73600
O2814       O  0.75438130  0.00218337  0.71757607    -0.74600
O2815       O  0.75104558  0.95938451  0.68771689    -0.63200
O2816       O  0.74897091  0.54852458  0.68988084    -0.71600
O2817       O  0.69916128  0.54934856  0.69266173    -0.71100
O2818       O  0.70138739  0.95799177  0.69100174    -0.62400
O2819       O  0.70462373  0.00070423  0.72054500    -0.74900
O2820       O  0.69533415  0.00489492  0.66393319    -0.73700
Cu2821     Cu  0.75145223  0.00473156  0.68912119     1.04600
Cu2822     Cu  0.69661500  0.50398425  0.69157985     1.04300
C2823       C  0.71873999  0.00588211  0.65350214     0.92600
C2824       C  0.73097266  0.99970958  0.72792142     0.91800
C2825       C  0.72654777  0.94434564  0.68887350     0.83900
C2826       C  0.72428507  0.56328284  0.69132654     0.90200
O2827       O  0.69963020  0.70868411  0.68988456    -0.73600
O2828       O  0.70046870  0.79959041  0.68867850    -0.74600
O2829       O  0.69476809  0.75333835  0.66097228    -0.63200
O2830       O  0.70518641  0.75532930  0.71735225    -0.71600
O2831       O  0.75481605  0.75581376  0.71406257    -0.71100
O2832       O  0.74450088  0.75206715  0.65774762    -0.62400
O2833       O  0.75005726  0.79884023  0.68479044    -0.74900
O2834       O  0.74943132  0.70825319  0.68701518    -0.73700
Cu2835     Cu  0.69828549  0.75418477  0.68931734     1.04600
Cu2836     Cu  0.75140124  0.75362827  0.68577100     1.04300
C2837       C  0.72447377  0.69413117  0.68877538     0.92600
C2838       C  0.72546868  0.81355472  0.68666348     0.91800
C2839       C  0.71808282  0.75270574  0.65047047     0.83900
C2840       C  0.73157745  0.75658101  0.72463488     0.90200
O2841       O  0.99841084  0.93056584  0.86998752    -0.73600
O2842       O  0.99862683  0.94350706  0.81342866    -0.74600
O2843       O  0.54371576  0.93732197  0.84202242    -0.63200
O2844       O  0.95291071  0.93722666  0.84157414    -0.71600
O2845       O  0.95144360  0.48458649  0.84396672    -0.71100
O2846       O  0.54250642  0.48782570  0.84390815    -0.62400
O2847       O  0.99730382  0.49353701  0.81579489    -0.74900
O2848       O  0.99800094  0.47964046  0.87190421    -0.73700
Cu2849     Cu  0.99830921  0.93525635  0.84158656     1.04600
Cu2850     Cu  0.99712253  0.48811364  0.84401272     1.04300
C2851       C  0.99959554  0.45300768  0.87867293     0.92600
C2852       C  0.99854157  0.47114166  0.80452790     0.91800
C2853       C  0.55739924  0.46354389  0.84121330     0.83900
C2854       C  0.93802841  0.45925763  0.84192370     0.90200
O2855       O  0.50277832  0.74712044  0.81561104    -0.73600
O2856       O  0.49980910  0.75992605  0.87170060    -0.74600
O2857       O  0.95564002  0.75292995  0.84274285    -0.63200
O2858       O  0.54620346  0.75486404  0.84457634    -0.71600
O2859       O  0.54519804  0.80416358  0.83968236    -0.71100
O2860       O  0.95442594  0.80248399  0.83883394    -0.62400
O2861       O  0.49948240  0.80942878  0.86755393    -0.74900
O2862       O  0.50067496  0.79644678  0.81127650    -0.73700
Cu2863     Cu  0.50103087  0.75187243  0.84383026     1.04600
Cu2864     Cu  0.49981221  0.80471359  0.83923203     1.04300
C2865       C  0.50280224  0.76977299  0.80455532     0.92600
C2866       C  0.49980702  0.78660932  0.87848902     0.91800
C2867       C  0.94071297  0.77735266  0.84066767     0.83900
C2868       C  0.56002765  0.77982601  0.84226966     0.90200
O2869       O  0.74726161  0.49397649  0.81911786    -0.73600
O2870       O  0.74964857  0.47826567  0.87479910    -0.74600
O2871       O  0.79447078  0.48358334  0.84632669    -0.63200
O2872       O  0.70333207  0.48754523  0.84753271    -0.71600
O2873       O  0.70286761  0.93919064  0.84358547    -0.71100
O2874       O  0.79317873  0.93888325  0.84226923    -0.62400
O2875       O  0.74928556  0.93156415  0.87103727    -0.74900
O2876       O  0.74695808  0.94764996  0.81478060    -0.73700
Cu2877     Cu  0.74887434  0.48749326  0.84714263     1.04600
Cu2878     Cu  0.74805229  0.93763094  0.84272007     1.04300
C2879       C  0.74542487  0.47222158  0.80741837     0.92600
C2880       C  0.74872268  0.45144799  0.88124800     0.91800
C2881       C  0.80762395  0.45827481  0.84360693     0.83900
C2882       C  0.68824693  0.46347548  0.84448346     0.90200
O2883       O  0.74661558  0.74691429  0.81635970    -0.73600
O2884       O  0.75313720  0.75825563  0.87249936    -0.74600
O2885       O  0.70476575  0.75382937  0.84612940    -0.63200
O2886       O  0.79528519  0.75134908  0.84276370    -0.71600
O2887       O  0.79609008  0.80101270  0.83940355    -0.71100
O2888       O  0.70549712  0.80326571  0.84179827    -0.62400
O2889       O  0.75324145  0.80784948  0.86875107    -0.74900
O2890       O  0.74816771  0.79642052  0.81258630    -0.73700
Cu2891     Cu  0.74996720  0.75086448  0.84458249     1.04600
Cu2892     Cu  0.75083252  0.80384157  0.84051600     1.04300
C2893       C  0.74599992  0.76993863  0.80560662     0.92600
C2894       C  0.75400880  0.78481052  0.87947486     0.91800
C2895       C  0.69079144  0.77881273  0.84409882     0.83900
C2896       C  0.80999570  0.77588191  0.84077790     0.90200
O2897       O  0.55635023  0.49920833  0.36820966    -0.73600
O2898       O  0.54750772  0.49314293  0.31159491    -0.74600
O2899       O  0.55517704  0.54225292  0.33820700    -0.63200
O2900       O  0.54866846  0.95312687  0.34321713    -0.71600
O2901       O  0.99961643  0.95423090  0.34698066    -0.71100
O2902       O  0.00556850  0.54533230  0.34024940    -0.62400
O2903       O  0.99555813  0.99445702  0.31643099    -0.74900
O2904       O  0.00417292  0.00281040  0.37210726    -0.73700
Cu2905     Cu  0.55386133  0.49663920  0.33978165     1.04600
Cu2906     Cu  0.99831791  0.99915128  0.34436534     1.04300
C2907       C  0.03298300  0.50167493  0.37838943     0.92600
C2908       C  0.01897354  0.99207749  0.30616760     0.91800
C2909       C  0.03123264  0.55834440  0.33900247     0.83900
C2910       C  0.02420661  0.93936906  0.34574096     0.90200
O2911       O  0.00537947  0.70346056  0.33941498    -0.73600
O2912       O  0.00236077  0.79344984  0.34526436    -0.74600
O2913       O  0.99946058  0.75367740  0.31418855    -0.63200
O2914       O  0.00766791  0.74466808  0.37022739    -0.71600
O2915       O  0.55692832  0.74756858  0.36817666    -0.71100
O2916       O  0.54907358  0.75459936  0.31158162    -0.62400
O2917       O  0.55152215  0.79556273  0.34192841    -0.74900
O2918       O  0.55488962  0.70500986  0.33792679    -0.73700
Cu2919     Cu  0.00205334  0.74857293  0.34230751     1.04600
Cu2920     Cu  0.55486725  0.75057671  0.33977924     1.04300
C2921       C  0.53048480  0.68967169  0.33847993     0.92600
C2922       C  0.52617375  0.80868835  0.34432994     0.91800
C2923       C  0.52278685  0.75641877  0.30414746     0.83900
C2924       C  0.53309613  0.74570719  0.37818713     0.90200
O2925       O  0.69614895  0.55366757  0.33696109    -0.73600
O2926       O  0.69827776  0.96511396  0.34260258    -0.74600
O2927       O  0.69236167  0.01326508  0.36906307    -0.63200
O2928       O  0.70581196  0.00613477  0.31289368    -0.71600
O2929       O  0.75530975  0.00632863  0.31751128    -0.71100
O2930       O  0.74184690  0.01202687  0.37359778    -0.62400
O2931       O  0.74772068  0.96471460  0.34727210    -0.74900
O2932       O  0.74500334  0.55566534  0.34242528    -0.73700
Cu2933     Cu  0.69754668  0.01019207  0.34070649     1.04600
Cu2934     Cu  0.74823951  0.51057159  0.34398721     1.04300
C2935       C  0.72017377  0.56921187  0.33900633     0.92600
C2936       C  0.72285624  0.95062481  0.34519095     0.91800
C2937       C  0.71496896  0.01302917  0.38019268     0.83900
C2938       C  0.73261110  0.00400807  0.30644123     0.90200
O2939       O  0.68834660  0.75893340  0.36613241    -0.73600
O2940       O  0.70162560  0.76538659  0.31010379    -0.74600
O2941       O  0.69493570  0.71663497  0.33566868    -0.63200
O2942       O  0.69539499  0.80683564  0.33998553    -0.71600
O2943       O  0.74489844  0.80557847  0.34448661    -0.71100
O2944       O  0.74376242  0.71556837  0.34119511    -0.62400
O2945       O  0.75104451  0.76376030  0.31474371    -0.74900
O2946       O  0.73794319  0.75841804  0.37034262    -0.73700
Cu2947     Cu  0.69332198  0.76184919  0.33782689     1.04600
Cu2948     Cu  0.74608469  0.76067943  0.34280928     1.04300
C2949       C  0.71128564  0.75846440  0.37707169     0.92600
C2950       C  0.72847948  0.76630757  0.30364297     0.91800
C2951       C  0.71919491  0.70151025  0.33790905     0.83900
C2952       C  0.72039160  0.82045181  0.34276212     0.90200
O2953       O  0.01069630  0.50069975  0.40860921    -0.73600
O2954       O  0.01366792  0.49676208  0.46502529    -0.74600
O2955       O  0.01291779  0.54397404  0.43786157    -0.63200
O2956       O  0.01068951  0.95211794  0.43644914    -0.71600
O2957       O  0.55975058  0.95328510  0.43571979    -0.71100
O2958       O  0.56264595  0.54299844  0.43648943    -0.62400
O2959       O  0.56019211  0.99686887  0.46528328    -0.74900
O2960       O  0.55708078  0.00045081  0.40860134    -0.73700
Cu2961     Cu  0.01048992  0.49867785  0.43680387     1.04600
Cu2962     Cu  0.56047082  0.99859289  0.43689238     1.04300
C2963       C  0.53459971  0.50065070  0.39893977     0.92600
C2964       C  0.53566242  0.99555594  0.47465624     0.91800
C2965       C  0.53787362  0.55766779  0.43731958     0.83900
C2966       C  0.53516179  0.93827452  0.43578858     0.90200
O2967       O  0.56568726  0.74855736  0.46367384    -0.73600
O2968       O  0.56102002  0.74659030  0.40696187    -0.74600
O2969       O  0.56326960  0.79313857  0.43467165    -0.63200
O2970       O  0.56333287  0.70242345  0.43591181    -0.71600
O2971       O  0.01366330  0.70281502  0.43745229    -0.71100
O2972       O  0.01399891  0.79354327  0.43577450    -0.62400
O2973       O  0.01164554  0.74656951  0.40840980    -0.74900
O2974       O  0.01613046  0.74928421  0.46498977    -0.73700
Cu2975     Cu  0.56505215  0.74770928  0.43526265     1.04600
Cu2976     Cu  0.01213370  0.74810427  0.43671076     1.04300
C2977       C  0.54148936  0.74872816  0.47339817     0.92600
C2978       C  0.53522524  0.74595259  0.39887349     0.91800
C2979       C  0.53825453  0.80748932  0.43508224     0.83900
C2980       C  0.53835801  0.68815773  0.43694235     0.90200
O2981       O  0.73414412  0.01195022  0.41136079    -0.73600
O2982       O  0.72599306  0.00850000  0.46765717    -0.74600
O2983       O  0.72944992  0.96480187  0.43815055    -0.63200
O2984       O  0.73100825  0.55627047  0.43850690    -0.71600
O2985       O  0.68104854  0.55580863  0.43625177    -0.71100
O2986       O  0.67968866  0.96563680  0.43482155    -0.62400
O2987       O  0.67631845  0.00759456  0.46528052    -0.74900
O2988       O  0.68439873  0.01329360  0.40811750    -0.73700
Cu2989     Cu  0.73156251  0.01033662  0.43949992     1.04600
Cu2990     Cu  0.67835451  0.01076706  0.43654634     1.04300
C2991       C  0.71090520  0.01299675  0.40083547     0.92600
C2992       C  0.70016321  0.00668305  0.47552277     0.91800
C2993       C  0.70438742  0.95091930  0.43595233     0.83900
C2994       C  0.70585675  0.57030950  0.43728290     0.90200
O2995       O  0.67879430  0.71467650  0.43377694    -0.73600
O2996       O  0.67856201  0.80544839  0.43365244    -0.74600
O2997       O  0.68164785  0.75968246  0.40526255    -0.63200
O2998       O  0.67657704  0.75944947  0.46246447    -0.71600
O2999       O  0.72592142  0.76289027  0.46356273    -0.71100
O3000       O  0.73153585  0.75857928  0.40776231    -0.62400
O3001       O  0.72853555  0.80601886  0.43443830    -0.74900
O3002       O  0.72861181  0.71517375  0.43696225    -0.73700
Cu3003     Cu  0.67707655  0.75991431  0.43371896     1.04600
Cu3004     Cu  0.73027597  0.76068319  0.43573417     1.04300
C3005       C  0.70378512  0.70064674  0.43558273     0.92600
C3006       C  0.70340175  0.82010745  0.43386833     0.91800
C3007       C  0.70775248  0.75872732  0.39763041     0.83900
C3008       C  0.70091521  0.76069091  0.47219009     0.90200
O3009       O  0.95699570  0.91901381  0.09623654    -0.73600
O3010       O  0.54728152  0.92271445  0.09569917    -0.74600
O3011       O  0.50200502  0.92427779  0.12410913    -0.63200
O3012       O  0.50169384  0.91862371  0.06731642    -0.71600
O3013       O  0.49912968  0.46732944  0.06336256    -0.71100
O3014       O  0.49991660  0.47417033  0.11962053    -0.62400
O3015       O  0.54526862  0.47056130  0.09150005    -0.74900
O3016       O  0.95445361  0.47024631  0.09207936    -0.73700
Cu3017     Cu  0.50199059  0.91961925  0.09583955     1.04600
Cu3018     Cu  0.99976916  0.47218881  0.09172979     1.04300
C3019       C  0.94164339  0.94337155  0.09574766     0.92600
C3020       C  0.56088858  0.94804544  0.09480688     0.91800
C3021       C  0.50125484  0.95031866  0.13179746     0.83900
C3022       C  0.50068116  0.94275286  0.05751445     0.90200
O3023       O  0.50314645  0.78262093  0.06334732    -0.73600
O3024       O  0.50060340  0.77866724  0.11971558    -0.74600
O3025       O  0.95637814  0.78267751  0.09044447    -0.63200
O3026       O  0.54715910  0.77892752  0.09249798    -0.71600
O3027       O  0.54879479  0.82883124  0.09428683    -0.71100
O3028       O  0.95828130  0.83254959  0.09189618    -0.62400
O3029       O  0.50209305  0.82850526  0.12173586    -0.74900
O3030       O  0.50560906  0.83235093  0.06474612    -0.73700
Cu3031     Cu  0.50168051  0.77898824  0.09151766     1.04600
Cu3032     Cu  0.50363726  0.83227238  0.09327473     1.04300
C3033       C  0.50532185  0.80802702  0.05505340     0.92600
C3034       C  0.50129861  0.80265661  0.12964960     0.91800
C3035       C  0.94298705  0.80818474  0.09092925     0.83900
C3036       C  0.56224649  0.80338990  0.09365471     0.90200
O3037       O  0.75210112  0.46381514  0.06437715    -0.73600
O3038       O  0.74956372  0.47550589  0.12024959    -0.74600
O3039       O  0.79590825  0.46957254  0.09319803    -0.63200
O3040       O  0.70522407  0.46959925  0.09165316    -0.71600
O3041       O  0.70542929  0.92221296  0.09647403    -0.71100
O3042       O  0.79608655  0.91897439  0.09777521    -0.62400
O3043       O  0.75024571  0.92480671  0.12546235    -0.74900
O3044       O  0.75186435  0.91685192  0.06871261    -0.73700
Cu3045     Cu  0.75064862  0.47132186  0.09222264     1.04600
Cu3046     Cu  0.75078247  0.91892589  0.09718291     1.04300
C3047       C  0.75303837  0.94063933  0.05860495     0.92600
C3048       C  0.75102773  0.95119732  0.13271166     0.91800
C3049       C  0.81120106  0.94338432  0.09662758     0.83900
C3050       C  0.69185509  0.94756310  0.09525569     0.90200
O3051       O  0.74889041  0.83093526  0.06511025    -0.73600
O3052       O  0.75357812  0.82845282  0.12192178    -0.74600
O3053       O  0.79666470  0.83213549  0.09226480    -0.63200
O3054       O  0.70619441  0.82806333  0.09472011    -0.71600
O3055       O  0.70788869  0.77812621  0.09335849    -0.71100
O3056       O  0.79886899  0.78223480  0.09140122    -0.62400
O3057       O  0.75514641  0.77854697  0.12031239    -0.74900
O3058       O  0.75174822  0.78117047  0.06422818    -0.73700
Cu3059     Cu  0.75128687  0.83165464  0.09354562     1.04600
Cu3060     Cu  0.75350813  0.77831951  0.09230288     1.04300
C3061       C  0.74956399  0.80634549  0.05569800     0.92600
C3062       C  0.75481260  0.80275319  0.12999264     0.91800
C3063       C  0.81209237  0.80784621  0.09152633     0.83900
C3064       C  0.69275761  0.80262750  0.09426546     0.90200
O3065       O  0.00093493  0.49233092  0.21336058    -0.73600
O3066       O  0.99789195  0.48036930  0.15755136    -0.74600
O3067       O  0.95351409  0.48679293  0.18607913    -0.63200
O3068       O  0.54392848  0.48653729  0.18445533    -0.71600
O3069       O  0.54510247  0.93298024  0.19038420    -0.71100
O3070       O  0.95407485  0.93965041  0.19170649    -0.62400
O3071       O  0.99811046  0.92993019  0.16311863    -0.74900
O3072       O  0.00046474  0.94202769  0.21948967    -0.73700
Cu3073     Cu  0.99891513  0.48806027  0.18527899     1.04600
Cu3074     Cu  0.99901259  0.93410109  0.19141672     1.04300
C3075       C  0.00296772  0.96859139  0.22634635     0.92600
C3076       C  0.00063706  0.95301809  0.15253437     0.91800
C3077       C  0.94156365  0.96516908  0.18885167     0.83900
C3078       C  0.56091649  0.95677148  0.18829492     0.90200
O3079       O  0.50490946  0.80977042  0.21781639    -0.73600
O3080       O  0.50224194  0.82290978  0.16105409    -0.74600
O3081       O  0.95826156  0.81584872  0.18968284    -0.63200
O3082       O  0.54867982  0.81831419  0.18897330    -0.71600
O3083       O  0.55011078  0.76900474  0.18392838    -0.71100
O3084       O  0.95920333  0.76622797  0.18621447    -0.62400
O3085       O  0.50233968  0.77330378  0.15735302    -0.74900
O3086       O  0.50772970  0.76071057  0.21292427    -0.73700
Cu3087     Cu  0.50344264  0.81845196  0.18960392     1.04600
Cu3088     Cu  0.50482946  0.76564509  0.18500873     1.04300
C3089       C  0.50737734  0.78291800  0.22429689     0.92600
C3090       C  0.50182327  0.79972514  0.15031939     0.91800
C3091       C  0.94437470  0.79078609  0.18812718     0.83900
C3092       C  0.56368252  0.79413232  0.18635214     0.90200
O3093       O  0.75158687  0.94944318  0.22045350    -0.73600
O3094       O  0.75267874  0.93312066  0.16437301    -0.74600
O3095       O  0.79712827  0.94328226  0.19263139    -0.63200
O3096       O  0.70721375  0.93842877  0.19187283    -0.71600
O3097       O  0.70272595  0.49245607  0.18474070    -0.71100
O3098       O  0.79401620  0.49140380  0.18637761    -0.62400
O3099       O  0.74927160  0.48455785  0.15789294    -0.74900
O3100       O  0.74666117  0.49993871  0.21344048    -0.73700
Cu3101     Cu  0.75226585  0.93939500  0.19258703     1.04600
Cu3102     Cu  0.74827798  0.49381954  0.18545025     1.04300
C3103       C  0.74972740  0.97641906  0.22673752     0.92600
C3104       C  0.75095386  0.95555130  0.15318350     0.91800
C3105       C  0.81034042  0.96815961  0.18916154     0.83900
C3106       C  0.69130893  0.96204186  0.18931267     0.90200
O3107       O  0.75046299  0.76325401  0.21340299    -0.73600
O3108       O  0.75484492  0.77398501  0.15783147    -0.74600
O3109       O  0.79844555  0.76731469  0.18676992    -0.63200
O3110       O  0.70781343  0.77034226  0.18450723    -0.71600
O3111       O  0.70907185  0.81986619  0.18868134    -0.71100
O3112       O  0.79971662  0.81702301  0.18986486    -0.62400
O3113       O  0.75530565  0.82372230  0.16099826    -0.74900
O3114       O  0.75280576  0.81269455  0.21736569    -0.73700
Cu3115     Cu  0.75296738  0.76705494  0.18549158     1.04600
Cu3116     Cu  0.75439460  0.82009672  0.18936083     1.04300
C3117       C  0.75010240  0.78618752  0.22420780     0.92600
C3118       C  0.75518911  0.80024703  0.15056793     0.91800
C3119       C  0.81342033  0.79178492  0.18845752     0.83900
C3120       C  0.69415194  0.79548183  0.18657062     0.90200
O3121       O  0.50128145  0.91810791  0.96597651    -0.73600
O3122       O  0.49992871  0.92426420  0.90889771    -0.74600
O3123       O  0.54604790  0.91820924  0.93720805    -0.63200
O3124       O  0.95559964  0.92258119  0.93786607    -0.71600
O3125       O  0.95789035  0.47290247  0.93870961    -0.71100
O3126       O  0.54847503  0.46396323  0.93808276    -0.62400
O3127       O  0.50264035  0.47207652  0.90972923    -0.74900
O3128       O  0.50274728  0.46516070  0.96614380    -0.73700
Cu3129     Cu  0.50066318  0.91917836  0.93735990     1.04600
Cu3130     Cu  0.50315246  0.47007480  0.93807309     1.04300
C3131       C  0.49957329  0.43947877  0.97394017     0.92600
C3132       C  0.50105834  0.44868239  0.89928656     0.91800
C3133       C  0.56062882  0.43777385  0.93802525     0.83900
C3134       C  0.94168898  0.44923088  0.93711267     0.90200
O3135       O  0.50206214  0.81736418  0.90610176    -0.73600
O3136       O  0.50786653  0.82773395  0.96254525    -0.74600
O3137       O  0.55009020  0.82085644  0.93289902    -0.63200
O3138       O  0.95923300  0.82471254  0.93575163    -0.71600
O3139       O  0.95806791  0.77503589  0.93893341    -0.71100
O3140       O  0.54858030  0.77126742  0.93668207    -0.62400
O3141       O  0.50557234  0.77826271  0.96595676    -0.74900
O3142       O  0.50097424  0.76777331  0.90976817    -0.75300
Cu3143     Cu  0.50488272  0.82430127  0.93420335     1.04600
Cu3144     Cu  0.50320608  0.77129993  0.93797958     1.04300
C3145       C  0.50082101  0.79084799  0.89906529     0.92600
C3146       C  0.50765979  0.80456853  0.97320028     0.91800
C3147       C  0.56361878  0.79556482  0.93458370     0.83900
C3148       C  0.94432229  0.80027902  0.93774108     0.90200
O3149       O  0.70387424  0.46144942  0.94100401    -0.73600
O3150       O  0.79408568  0.47004267  0.94093401    -0.74600
O3151       O  0.74832138  0.47021764  0.91260581    -0.63200
O3152       O  0.75006878  0.46123584  0.96891842    -0.71600
O3153       O  0.75507451  0.91612268  0.96693849    -0.71100
O3154       O  0.75238258  0.92359657  0.91006407    -0.62400
O3155       O  0.79887186  0.92267448  0.93804204    -0.74900
O3156       O  0.70844756  0.91624895  0.93908531    -0.73700
Cu3157     Cu  0.74887297  0.46740432  0.94092357     1.04600
Cu3158     Cu  0.75381912  0.91790004  0.93843186     1.04300
C3159       C  0.69159017  0.43541239  0.94047429     0.92600
C3160       C  0.81054704  0.44673508  0.93868368     0.91800
C3161       C  0.74918443  0.44707173  0.90190408     0.83900
C3162       C  0.75393881  0.93997913  0.97704010     0.90200
O3163       O  0.75447357  0.81525171  0.90717163    -0.73600
O3164       O  0.74992892  0.82516886  0.96352770    -0.74600
O3165       O  0.79783581  0.82268825  0.93674418    -0.63200
O3166       O  0.70753471  0.81827035  0.93403407    -0.71600
O3167       O  0.70916894  0.76867144  0.93778471    -0.71100
O3168       O  0.80022052  0.77302477  0.93966984    -0.62400
O3169       O  0.75299741  0.77567420  0.96676752    -0.74900
O3170       O  0.75592807  0.76561857  0.91063887    -0.73700
Cu3171     Cu  0.75246686  0.82204081  0.93524653     1.04600
Cu3172     Cu  0.75474602  0.76901344  0.93883248     1.04300
C3173       C  0.75511161  0.78878529  0.90003763     0.92600
C3174       C  0.75045427  0.80187741  0.97406193     0.91800
C3175       C  0.81337619  0.79860316  0.93851427     0.83900
C3176       C  0.69407523  0.79300345  0.93568126     0.90200
O3177       O  0.56413300  0.49341438  0.62160832    -0.73600
O3178       O  0.56702910  0.49130195  0.56433418    -0.74600
O3179       O  0.56639478  0.53732272  0.59215787    -0.63200
O3180       O  0.56440543  0.94780222  0.59447701    -0.71600
O3181       O  0.01399990  0.94735736  0.59305643    -0.71100
O3182       O  0.01635187  0.53867001  0.59132036    -0.62400
O3183       O  0.01396781  0.99231521  0.56463588    -0.74900
O3184       O  0.01154163  0.99377771  0.62090247    -0.73700
Cu3185     Cu  0.56763551  0.49222115  0.59295359     1.04600
Cu3186     Cu  0.01138420  0.99289447  0.59276603     1.04300
C3187       C  0.53826611  0.49368981  0.62960340     0.92600
C3188       C  0.53948603  0.99188485  0.55604468     0.91800
C3189       C  0.54163829  0.55201018  0.59155837     0.83900
C3190       C  0.53973217  0.93299736  0.59381144     0.90200
O3191       O  0.56499718  0.74177118  0.62172919    -0.73600
O3192       O  0.56946554  0.74415162  0.56458816    -0.74600
O3193       O  0.56745815  0.78804254  0.59395142    -0.63200
O3194       O  0.56787892  0.69749434  0.59220641    -0.71600
O3195       O  0.01802158  0.69758570  0.59064949    -0.71100
O3196       O  0.01739828  0.78843982  0.59187016    -0.62400
O3197       O  0.01951592  0.74407439  0.56314069    -0.74900
O3198       O  0.01501017  0.74232795  0.61928769    -0.73700
Cu3199     Cu  0.56924330  0.74279440  0.59317916     1.04600
Cu3200     Cu  0.01583143  0.74303660  0.59118309     1.04300
C3201       C  0.53897480  0.74194746  0.62951261     0.92600
C3202       C  0.54495052  0.74456031  0.55500544     0.91800
C3203       C  0.54243955  0.80229976  0.59320671     0.83900
C3204       C  0.54306816  0.68292042  0.59127953     0.90200
O3205       O  0.68578032  0.55040642  0.59526040    -0.73600
O3206       O  0.68509352  0.95936426  0.59737749    -0.74600
O3207       O  0.68911903  0.00546212  0.62526958    -0.63200
O3208       O  0.68064447  0.00337092  0.56837089    -0.71600
O3209       O  0.73233361  0.50448448  0.56483703    -0.71100
O3210       O  0.73890698  0.00570017  0.62241513    -0.62400
O3211       O  0.73490839  0.95954586  0.59443287    -0.74900
O3212       O  0.73569902  0.55021727  0.59316161    -0.73700
Cu3213     Cu  0.68303898  0.00451036  0.59696692     1.04600
Cu3214     Cu  0.73731053  0.50477390  0.59327752     1.04300
C3215       C  0.71074731  0.56461461  0.59413044     0.92600
C3216       C  0.71003900  0.94516338  0.59594177     0.91800
C3217       C  0.71540904  0.00580740  0.63277767     0.83900
C3218       C  0.70418123  0.00356091  0.55798861     0.90200
O3219       O  0.73830118  0.75303635  0.61958713    -0.73600
O3220       O  0.72979322  0.75756270  0.56344672    -0.74600
O3221       O  0.73440729  0.80033985  0.59286609    -0.63200
O3222       O  0.73398563  0.70966798  0.59030280    -0.71600
O3223       O  0.68427887  0.70945327  0.59365079    -0.71100
O3224       O  0.68443848  0.80027439  0.59426685    -0.62400
O3225       O  0.68045776  0.75488295  0.56537916    -0.74900
O3226       O  0.68848041  0.75423909  0.62227487    -0.73700
Cu3227     Cu  0.73577713  0.75512638  0.59142040     1.04600
Cu3228     Cu  0.68264560  0.75476370  0.59396463     1.04300
C3229       C  0.71471931  0.75322014  0.62983195     0.92600
C3230       C  0.70416338  0.75636807  0.55524066     0.91800
C3231       C  0.70945291  0.81462187  0.59391556     0.83900
C3232       C  0.70919630  0.69522252  0.59200111     0.90200
C3233       C  0.69267001  0.89639361  0.58199411    -0.02500
C3234       C  0.70988111  0.91179584  0.59563242     0.07200
C3235       C  0.72679116  0.89522354  0.60885461    -0.02600
C3236       C  0.72666092  0.86344379  0.60834147    -0.02600
C3237       C  0.70955567  0.84802996  0.59460682     0.07300
C3238       C  0.69273282  0.86467871  0.58138115    -0.02800
Br3239     Br  0.67146299  0.84418209  0.56148709    -0.01300
Br3240     Br  0.66995107  0.91874798  0.56351690    -0.01400
Br3241     Br  0.74913112  0.84113061  0.62694343    -0.01400
Br3242     Br  0.74887740  0.91602074  0.62831816    -0.01400
C3243       C  0.72353341  0.64517261  0.57806748    -0.02500
C3244       C  0.70940013  0.66177776  0.59245408     0.07200
C3245       C  0.69573140  0.64628363  0.60746295    -0.02600
C3246       C  0.69610273  0.61453209  0.60800499    -0.02600
C3247       C  0.71063408  0.59799727  0.59373030     0.07300
C3248       C  0.72444203  0.61345866  0.57879887    -0.02800
Br3249     Br  0.74330206  0.59118222  0.55872128    -0.01300
Br3250     Br  0.73992721  0.66561035  0.55661228    -0.01400
Br3251     Br  0.67771501  0.59381833  0.62881379    -0.01400
Br3252     Br  0.67772544  0.66846414  0.62787817    -0.01400
C3253       C  0.52338092  0.88299252  0.60678047    -0.02500
C3254       C  0.54061766  0.89953734  0.59376881     0.07200
C3255       C  0.05865238  0.88455792  0.58072788    -0.02600
C3256       C  0.05951735  0.85280198  0.58061530    -0.02600
C3257       C  0.54232388  0.83570602  0.59363900     0.07300
C3258       C  0.52444894  0.85124486  0.60681909    -0.02800
Br3259     Br  0.50277733  0.82910095  0.62574986    -0.01300
Br3260     Br  0.49917777  0.90370932  0.62518036    -0.01400
Br3261     Br  0.08349610  0.83205361  0.56207737    -0.01400
Br3262     Br  0.08149698  0.90659193  0.56227079    -0.01400
C3263       C  0.06163448  0.63375322  0.60363385    -0.02500
C3264       C  0.54344049  0.64940051  0.59092845     0.07200
C3265       C  0.52595065  0.63341023  0.57765318    -0.02600
C3266       C  0.52509670  0.60163742  0.57795244    -0.02600
C3267       C  0.54235081  0.58547213  0.59123244     0.07300
C3268       C  0.06124249  0.60200263  0.60372239    -0.02800
Br3269     Br  0.08573141  0.58062177  0.62178329    -0.01300
Br3270     Br  0.08612843  0.65479488  0.62183317    -0.01400
Br3271     Br  0.50151655  0.58035660  0.55936273    -0.01400
Br3272     Br  0.50495799  0.65483360  0.55802035    -0.01400
C3273       C  0.89531256  0.78714899  0.95333285    -0.02500
C3274       C  0.91085374  0.80107333  0.93844764     0.07200
C3275       C  0.89427133  0.81518269  0.92400280    -0.02600
C3276       C  0.86246267  0.81521566  0.92436726    -0.02600
C3277       C  0.84687413  0.80031098  0.93888073     0.07300
C3278       C  0.86347131  0.78661383  0.95349506    -0.02800
Br3279     Br  0.84265615  0.76845589  0.97433195    -0.01300
Br3280     Br  0.91763262  0.76985767  0.97398135    -0.01400
Br3281     Br  0.84040704  0.83464872  0.90437230    -0.01400
Br3282     Br  0.91499608  0.83255255  0.90286120    -0.01400
C3283       C  0.64484983  0.81059175  0.94850094    -0.02500
C3284       C  0.66071291  0.79245146  0.93562900     0.07200
C3285       C  0.64460110  0.77491975  0.92247321    -0.02600
C3286       C  0.61279313  0.77611687  0.92194890    -0.02600
C3287       C  0.59698782  0.79455975  0.93471932     0.07300
C3288       C  0.61315098  0.81167125  0.94804489    -0.02800
Br3289     Br  0.59192014  0.83560687  0.96637607    -0.01300
Br3290     Br  0.66649701  0.83279669  0.96755121    -0.01400
Br3291     Br  0.59098941  0.75381143  0.90302989    -0.01400
Br3292     Br  0.66604272  0.75021017  0.90465890    -0.01400
C3293       C  0.86131766  0.93379587  0.95341177    -0.02500
C3294       C  0.84407956  0.44920510  0.93936689     0.07200
C3295       C  0.85940345  0.47423490  0.93158497    -0.02600
C3296       C  0.89129413  0.47501862  0.93133981    -0.02600
C3297       C  0.90818625  0.45067451  0.93873725     0.07300
C3298       C  0.89301557  0.93331775  0.95314229    -0.02800
Br3299     Br  0.91449878  0.91126687  0.97219779    -0.01300
Br3300     Br  0.84016352  0.91344120  0.97325997    -0.01400
Br3301     Br  0.91126720  0.50945690  0.92041327    -0.01400
Br3302     Br  0.83724380  0.50738528  0.92059701    -0.01400
C3303       C  0.64207647  0.41221026  0.93012837    -0.02500
C3304       C  0.65807951  0.43290764  0.94150723     0.07200
C3305       C  0.64277346  0.95412225  0.95450126    -0.02600
C3306       C  0.61102992  0.95525081  0.95376303    -0.02600
C3307       C  0.59402624  0.43461561  0.93995794     0.07300
C3308       C  0.61025025  0.41310504  0.92932944    -0.02800
Br3309     Br  0.58941878  0.38495061  0.91323115    -0.01300
Br3310     Br  0.66329582  0.38277028  0.91518077    -0.01400
Br3311     Br  0.58933393  0.97618863  0.97326624    -0.01400
Br3312     Br  0.66380891  0.97252664  0.97532533    -0.01400
C3313       C  0.89450181  0.77591858  0.17399901    -0.02500
C3314       C  0.91086713  0.79044966  0.18842124     0.07200
C3315       C  0.89504692  0.80556741  0.20279937    -0.02600
C3316       C  0.86323937  0.80537816  0.20304187    -0.02600
C3317       C  0.84690104  0.79100255  0.18857558     0.07300
C3318       C  0.86268179  0.77653463  0.17395415    -0.02800
Br3319     Br  0.84082303  0.75940681  0.15304651    -0.01300
Br3320     Br  0.91552743  0.75686906  0.15349280    -0.01400
Br3321     Br  0.84211493  0.82360438  0.22379419    -0.01400
Br3322     Br  0.91677848  0.82603722  0.22257635    -0.01400
C3323       C  0.61278339  0.81526758  0.17485586    -0.02500
C3324       C  0.59704010  0.79512345  0.18656880     0.07200
C3325       C  0.61326210  0.77630146  0.19891529    -0.02600
C3326       C  0.64500152  0.77680386  0.19907614    -0.02600
C3327       C  0.66078812  0.79611163  0.18686851     0.07300
C3328       C  0.64457342  0.81582652  0.17505060    -0.02800
Br3329     Br  0.66579711  0.84291339  0.15859462    -0.01300
Br3330     Br  0.59095897  0.84127236  0.15791373    -0.01400
Br3331     Br  0.66674203  0.75244367  0.21702910    -0.01400
Br3332     Br  0.59203008  0.75112773  0.21654575    -0.01400
C3333       C  0.89115049  0.94359754  0.17939989    -0.02500
C3334       C  0.90798946  0.96725726  0.18771626     0.07200
C3335       C  0.89007477  0.48124590  0.20095520    -0.02600
C3336       C  0.85830229  0.48235792  0.20110200    -0.02600
C3337       C  0.84385476  0.96878648  0.18783302     0.07300
C3338       C  0.85937536  0.94448763  0.17933270    -0.02800
Br3339     Br  0.83744768  0.91294465  0.16633415    -0.01300
Br3340     Br  0.91113099  0.91042459  0.16684227    -0.01400
Br3341     Br  0.83787898  0.50569709  0.22000931    -0.01400
Br3342     Br  0.91255483  0.50389723  0.21936371    -0.01400
C3343       C  0.60709283  0.47382777  0.17098700    -0.02500
C3344       C  0.59428358  0.95509096  0.18711784     0.07200
C3345       C  0.61104318  0.93687361  0.19956014    -0.02600
C3346       C  0.64256278  0.93995960  0.20071018    -0.02600
C3347       C  0.65796994  0.95945034  0.18837737     0.07300
C3348       C  0.63875964  0.47662716  0.17143569    -0.02800
Br3349     Br  0.65961593  0.49260618  0.14996506    -0.01300
Br3350     Br  0.58502429  0.48409264  0.14851604    -0.01400
Br3351     Br  0.66387549  0.91898144  0.22038596    -0.01400
Br3352     Br  0.59156585  0.90721745  0.21507399    -0.01400
C3353       C  0.72977547  0.78580812  0.02497416    -0.02500
C3354       C  0.74803889  0.80676425  0.03477349     0.07200
C3355       C  0.76546984  0.82748407  0.02440350    -0.02600
C3356       C  0.76537592  0.82674263  0.00463213    -0.02600
C3357       C  0.74818868  0.80494893  0.99486489     0.07300
C3358       C  0.72960104  0.78516769  0.00519317    -0.02800
Br3359     Br  0.70215318  0.75831523  0.99229731    -0.01300
Br3360     Br  0.70412329  0.75816352  0.03846307    -0.01400
Br3361     Br  0.79025250  0.85489662  0.99114921    -0.01400
Br3362     Br  0.79184289  0.85536935  0.03710336    -0.01400
C3363       C  0.77911499  0.44601523  0.02674480    -0.02500
C3364       C  0.75465432  0.93852866  0.03775717     0.07200
C3365       C  0.73437711  0.92011719  0.02760079    -0.02600
C3366       C  0.73490717  0.91960207  0.00781246    -0.02600
C3367       C  0.75520689  0.93812660  0.99788875     0.07300
C3368       C  0.77919024  0.44560172  0.00697727    -0.02800
Br3369     Br  0.81267039  0.46276632  0.99350598    -0.01300
Br3370     Br  0.81287515  0.46310177  0.04018870    -0.01400
Br3371     Br  0.70610905  0.89511996  0.99436793    -0.01400
Br3372     Br  0.70394501  0.89755333  0.04064923    -0.01400
C3373       C  0.89320086  0.79430350  0.07635480    -0.02500
C3374       C  0.90949866  0.80940353  0.09056518     0.07200
C3375       C  0.89364531  0.82514040  0.10464963    -0.02600
C3376       C  0.86181397  0.82539526  0.10466974    -0.02600
C3377       C  0.84553978  0.80930056  0.09085967     0.07300
C3378       C  0.86138410  0.79410874  0.07656353    -0.02800
Br3379     Br  0.83947370  0.77423304  0.05664026    -0.01300
Br3380     Br  0.91439044  0.77498931  0.05602271    -0.01400
Br3381     Br  0.84067590  0.84668898  0.12425784    -0.01400
Br3382     Br  0.91540851  0.84465049  0.12477135    -0.01400
C3383       C  0.64321090  0.78737669  0.10851499    -0.02500
C3384       C  0.65936828  0.80189821  0.09413720     0.07200
C3385       C  0.64350812  0.81642614  0.07958557    -0.02600
C3386       C  0.61179845  0.81708609  0.07956870    -0.02600
C3387       C  0.59559364  0.80246135  0.09384438     0.07300
C3388       C  0.61135866  0.78730468  0.10822947    -0.02800
Br3389     Br  0.58932767  0.76752248  0.12795699    -0.01300
Br3390     Br  0.66463987  0.76904813  0.12911521    -0.01400
Br3391     Br  0.59057360  0.83706890  0.05946528    -0.01400
Br3392     Br  0.66520528  0.83406723  0.05901812    -0.01400
C3393       C  0.99228546  0.83015833  0.00352230    -0.02500
C3394       C  0.50951677  0.80785048  0.99409163     0.07200
C3395       C  0.52768477  0.78798256  0.00473097    -0.02600
C3396       C  0.52661554  0.78832054  0.02452177    -0.02600
C3397       C  0.50776114  0.80898291  0.03409951     0.07300
C3398       C  0.99132015  0.83053710  0.02331904    -0.02800
Br3399     Br  0.96519266  0.85901377  0.03567602    -0.01300
Br3400     Br  0.96849074  0.85897793  0.98977291    -0.01400
Br3401     Br  0.55222409  0.76093468  0.03836454    -0.01400
Br3402     Br  0.55596725  0.76159775  0.99225775    -0.01400
C3403       C  0.89199165  0.92427782  0.08381539    -0.02500
C3404       C  0.90830127  0.94210910  0.09669005     0.07200
C3405       C  0.89152420  0.46529482  0.10664155    -0.02600
C3406       C  0.85972170  0.46530883  0.10699683    -0.02600
C3407       C  0.84453840  0.94227066  0.09704786     0.07300
C3408       C  0.86026583  0.92491786  0.08373004    -0.02800
Br3409     Br  0.83849414  0.90371072  0.06442029    -0.01300
Br3410     Br  0.91290188  0.89973916  0.06572396    -0.01400
Br3411     Br  0.83877831  0.49308318  0.12327727    -0.01400
Br3412     Br  0.91349166  0.49203514  0.12315808    -0.01400
C3413       C  0.60905950  0.42833144  0.10604186    -0.02500
C3414       C  0.59436240  0.94891546  0.09525028     0.07200
C3415       C  0.61051107  0.96511876  0.08155972    -0.02600
C3416       C  0.64234006  0.96520585  0.08175644    -0.02600
C3417       C  0.65833698  0.94861500  0.09544532     0.07300
C3418       C  0.64085832  0.42830888  0.10630696    -0.02800
Br3419     Br  0.66178813  0.40686516  0.12598949    -0.01300
Br3420     Br  0.58745096  0.40597531  0.12494459    -0.01400
Br3421     Br  0.66381652  0.98721313  0.06268424    -0.01400
Br3422     Br  0.58916855  0.98606669  0.06186344    -0.01400
C3423       C  0.47484024  0.45288368  0.00451976    -0.02500
C3424       C  0.49810950  0.43783111  0.99479054     0.07200
C3425       C  0.02371929  0.92498611  0.00717255    -0.02600
C3426       C  0.02377867  0.92572973  0.02699524    -0.02600
C3427       C  0.49782284  0.43926645  0.03466118     0.07300
C3428       C  0.47476486  0.45373983  0.02431412    -0.02800
Br3429     Br  0.44261325  0.47439896  0.03724452    -0.01300
Br3430     Br  0.44245908  0.47170678  0.99065914    -0.01400
Br3431     Br  0.05710520  0.90836502  0.04065499    -0.01400
Br3432     Br  0.05557553  0.90420218  0.99412491    -0.01400
C3433       C  0.67460636  0.76492686  0.50421292    -0.02500
C3434       C  0.70093128  0.75895921  0.49345677     0.07200
C3435       C  0.72776529  0.75081735  0.50332657    -0.02600
C3436       C  0.72832554  0.74914824  0.52311373    -0.02600
C3437       C  0.70246231  0.75657075  0.53395406     0.07300
C3438       C  0.67546477  0.76416862  0.52412814    -0.02800
Br3439     Br  0.63889155  0.77453355  0.53745076    -0.01300
Br3440     Br  0.63660476  0.77481942  0.49217098    -0.01400
Br3441     Br  0.76534533  0.73477987  0.53473209    -0.01400
Br3442     Br  0.76492219  0.74044612  0.49036601    -0.01400
C3443       C  0.68519099  0.86940057  0.44697811    -0.02500
C3444       C  0.70304920  0.85363354  0.43386279     0.07200
C3445       C  0.72086699  0.87007828  0.42105404    -0.02600
C3446       C  0.72112166  0.90188929  0.42158760    -0.02600
C3447       C  0.70372918  0.91752093  0.43498244     0.07300
C3448       C  0.68541456  0.90113783  0.44746544    -0.02800
Br3449     Br  0.66153580  0.92211420  0.46594546    -0.01300
Br3450     Br  0.66182505  0.84766790  0.46527121    -0.01400
Br3451     Br  0.74393266  0.92409968  0.40320681    -0.01400
Br3452     Br  0.74399951  0.84923902  0.40216328    -0.01400
C3453       C  0.69405685  0.65063232  0.42038237    -0.02500
C3454       C  0.70395161  0.66730853  0.43606367     0.07200
C3455       C  0.71385596  0.65202676  0.45225050    -0.02600
C3456       C  0.71520799  0.62032217  0.45248902    -0.02600
C3457       C  0.70531653  0.60363474  0.43684321     0.07300
C3458       C  0.69431516  0.61887894  0.42087423    -0.02800
Br3459     Br  0.68052932  0.59629330  0.39938155    -0.01300
Br3460     Br  0.68116174  0.67130764  0.39796831    -0.01400
Br3461     Br  0.72955533  0.59968881  0.47454698    -0.01400
Br3462     Br  0.72331539  0.67441562  0.47462482    -0.01400
C3463       C  0.72014162  0.98535958  0.50619103    -0.02500
C3464       C  0.69859227  0.00333398  0.49661426     0.07200
C3465       C  0.68527088  0.52701065  0.50621222    -0.02600
C3466       C  0.68616455  0.52617899  0.52610081    -0.02600
C3467       C  0.70139249  0.00257912  0.53688770     0.07300
C3468       C  0.72143285  0.98487103  0.52603849    -0.02800
Br3469     Br  0.74986805  0.95824190  0.53822802    -0.01300
Br3470     Br  0.74637022  0.95879858  0.49221068    -0.01400
Br3471     Br  0.66381669  0.55579721  0.54019078    -0.01400
Br3472     Br  0.66153831  0.55749288  0.49377875    -0.01400
C3473       C  0.02766754  0.77021439  0.50483545    -0.02500
C3474       C  0.54326542  0.74827593  0.49429426     0.07200
C3475       C  0.56017769  0.72576291  0.50362847    -0.02600
C3476       C  0.56138840  0.72492576  0.52341842    -0.02600
C3477       C  0.54556298  0.74646604  0.53414471     0.07300
C3478       C  0.02874811  0.76938513  0.52460786    -0.02800
Br3479     Br  0.00776735  0.79990678  0.53884872    -0.01300
Br3480     Br  0.00505540  0.80168774  0.49248295    -0.01400
Br3481     Br  0.58309998  0.69290879  0.53581580    -0.01400
Br3482     Br  0.57986743  0.69446707  0.48937698    -0.01400
C3483       C  0.55350729  0.88897896  0.44870643    -0.02500
C3484       C  0.53631972  0.90481787  0.43524277     0.07200
C3485       C  0.02148754  0.88885574  0.42109574    -0.02600
C3486       C  0.02247137  0.85705014  0.42081056    -0.02600
C3487       C  0.53820180  0.84094841  0.43477137     0.07300
C3488       C  0.55439798  0.85723666  0.44848634    -0.02800
Br3489     Br  0.57678923  0.83607630  0.46762263    -0.01300
Br3490     Br  0.57485022  0.91061707  0.46812900    -0.01400
Br3491     Br  0.00237238  0.83523356  0.40094830    -0.01400
Br3492     Br  0.99957263  0.91013544  0.40179042    -0.01400
C3493       C  0.05361877  0.60706811  0.42304660    -0.02500
C3494       C  0.53836849  0.59104461  0.43742891     0.07200
C3495       C  0.52334278  0.60725055  0.45164043    -0.02600
C3496       C  0.52347430  0.63900167  0.45155997    -0.02600
C3497       C  0.53838986  0.65479405  0.43716401     0.07300
C3498       C  0.05340661  0.63879994  0.42278688    -0.02800
Br3499     Br  0.07186831  0.65990676  0.40213674    -0.01300
Br3500     Br  0.07331681  0.58532054  0.40306056    -0.01400
Br3501     Br  0.50424754  0.66075879  0.47170617    -0.01400
Br3502     Br  0.50361660  0.58604386  0.47176523    -0.01400
C3503       C  0.02449815  0.97006459  0.50516751    -0.02500
C3504       C  0.53674062  0.99444587  0.49547227     0.07200
C3505       C  0.55608930  0.51646269  0.50454293    -0.02600
C3506       C  0.55713975  0.51531642  0.52431540    -0.02600
C3507       C  0.53942076  0.99228608  0.53519924     0.07300
C3508       C  0.02550849  0.96911791  0.52493620    -0.02800
Br3509     Br  0.00818418  0.93526978  0.53797502    -0.01300
Br3510     Br  0.00587555  0.93747317  0.49143074    -0.01400
Br3511     Br  0.57659949  0.54733159  0.53809687    -0.01400
Br3512     Br  0.57471200  0.54971408  0.49161904    -0.01400
C3513       C  0.71872407  0.79473926  0.27366296    -0.02500
C3514       C  0.73359618  0.77110776  0.28323855     0.07200
C3515       C  0.75401038  0.75265676  0.27331784    -0.02600
C3516       C  0.76040018  0.75837635  0.25431792    -0.02600
C3517       C  0.74531981  0.78178816  0.24467166     0.07300
C3518       C  0.72396315  0.79955003  0.25440634    -0.02800
Br3519     Br  0.69995528  0.82915421  0.24122172    -0.01300
Br3520     Br  0.69190044  0.82157303  0.28695184    -0.01400
Br3521     Br  0.79076001  0.73446351  0.24182616    -0.01400
Br3522     Br  0.77178758  0.71802702  0.28530223    -0.01400
C3523       C  0.74472834  0.90126941  0.33486843    -0.02500
C3524       C  0.72272911  0.91728994  0.34519545     0.07200
C3525       C  0.70021226  0.90128845  0.35499000    -0.02600
C3526       C  0.69978295  0.86959121  0.35453043    -0.02600
C3527       C  0.72117069  0.85369557  0.34372729     0.07300
C3528       C  0.74347534  0.86968445  0.33378465    -0.02800
Br3529     Br  0.77124158  0.84869590  0.31744678    -0.01300
Br3530     Br  0.77606632  0.92216730  0.32123231    -0.01400
Br3531     Br  0.67076287  0.84812411  0.36962187    -0.01400
Br3532     Br  0.67054267  0.92245205  0.36982850    -0.01400
C3533       C  0.69241438  0.61931253  0.34138985    -0.02500
C3534       C  0.71931935  0.60301428  0.33760350     0.07200
C3535       C  0.74562522  0.61942751  0.33271904    -0.02600
C3536       C  0.74558556  0.65124402  0.33278881    -0.02600
C3537       C  0.71886922  0.66761513  0.33701624     0.07300
C3538       C  0.69205212  0.65114343  0.34077789    -0.02800
Br3539     Br  0.65404384  0.67126247  0.34586037    -0.01300
Br3540     Br  0.65543356  0.59890633  0.34838434    -0.01400
Br3541     Br  0.78293176  0.67149766  0.32640605    -0.01400
Br3542     Br  0.78221277  0.59905422  0.32484294    -0.01400
C3543       C  0.72892641  0.96880861  0.27888539    -0.02500
C3544       C  0.73731389  0.99714850  0.28615860     0.07200
C3545       C  0.74786622  0.51906647  0.27282459    -0.02600
C3546       C  0.75207223  0.51293251  0.25355167    -0.02600
C3547       C  0.74741895  0.98274554  0.24753348     0.07300
C3548       C  0.73495926  0.96113527  0.26002916    -0.02800
Br3549     Br  0.72624915  0.92034250  0.25220177    -0.01300
Br3550     Br  0.70839806  0.94032278  0.29479570    -0.01400
Br3551     Br  0.76970622  0.54443872  0.23842752    -0.01400
Br3552     Br  0.75934525  0.55764550  0.28307253    -0.01400
C3553       C  0.52777000  0.79620154  0.25670225    -0.02500
C3554       C  0.51041214  0.77697588  0.24498964     0.07200
C3555       C  0.99701642  0.75127957  0.25293637    -0.02600
C3556       C  0.00195772  0.74420200  0.27201320    -0.02600
C3557       C  0.51927104  0.76304762  0.28373148     0.07300
C3558       C  0.53158528  0.78957826  0.27596712    -0.02800
Br3559     Br  0.55254294  0.81784456  0.29197916    -0.01300
Br3560     Br  0.54812407  0.83089083  0.24647316    -0.01400
Br3561     Br  0.98597638  0.70728090  0.28224916    -0.01400
Br3562     Br  0.97059607  0.72556925  0.23843196    -0.01400
C3563       C  0.00243114  0.85811553  0.33572534    -0.02500
C3564       C  0.52474520  0.84204270  0.34550506     0.07200
C3565       C  0.54641606  0.85829098  0.35602201    -0.02600
C3566       C  0.54562625  0.89002254  0.35643449    -0.02600
C3567       C  0.02367435  0.90598440  0.34647544     0.07300
C3568       C  0.00158870  0.88978492  0.33627575    -0.02800
Br3569     Br  0.97090562  0.91059034  0.32190022    -0.01300
Br3570     Br  0.97338483  0.83696997  0.32024522    -0.01400
Br3571     Br  0.57446079  0.91151560  0.37185395    -0.01400
Br3572     Br  0.57672414  0.83736493  0.37060282    -0.01400
C3573       C  0.55141648  0.60795441  0.32672562    -0.02500
C3574       C  0.03270506  0.59202505  0.33912147     0.07200
C3575       C  0.01471258  0.60841184  0.35191002    -0.02600
C3576       C  0.01433759  0.64017069  0.35162821    -0.02600
C3577       C  0.53156449  0.65601092  0.33862753     0.07300
C3578       C  0.55046263  0.63984142  0.32623047    -0.02800
Br3579     Br  0.57383120  0.66113375  0.30769967    -0.01300
Br3580     Br  0.57842258  0.58679404  0.31009892    -0.01400
Br3581     Br  0.99106502  0.66143579  0.37032536    -0.01400
Br3582     Br  0.99220218  0.58758596  0.37110842    -0.01400
C3583       C  0.52553480  0.95951382  0.27792666    -0.02500
C3584       C  0.01518086  0.98609822  0.28586235     0.07200
C3585       C  0.00460813  0.50953991  0.27270265    -0.02600
C3586       C  0.99907128  0.50412650  0.25348386    -0.02600
C3587       C  0.00560675  0.97365921  0.24713029     0.07300
C3588       C  0.52070758  0.95303207  0.25877117    -0.02800
Br3589     Br  0.53523694  0.91504913  0.24928474    -0.01300
Br3590     Br  0.54594802  0.93052445  0.29372730    -0.01400
Br3591     Br  0.98286010  0.53724196  0.23902372    -0.01400
Br3592     Br  0.99627224  0.54860444  0.28355172    -0.01400
C3593       C  0.85916710  0.78905132  0.82552325    -0.02500
C3594       C  0.84341992  0.77535691  0.84039593     0.07200
C3595       C  0.85974474  0.76202852  0.85524733    -0.02600
C3596       C  0.89151801  0.76316206  0.85547842    -0.02600
C3597       C  0.90727859  0.77655059  0.84050735     0.07300
C3598       C  0.89097487  0.78930095  0.82546311    -0.02800
Br3599     Br  0.91216707  0.80593960  0.80428766    -0.01300
Br3600     Br  0.83721800  0.80638886  0.80475092    -0.01400
Br3601     Br  0.91329310  0.74837847  0.87707143    -0.01400
Br3602     Br  0.83869069  0.74337342  0.87583571    -0.01400
C3603       C  0.60970729  0.75936740  0.83153089    -0.02500
C3604       C  0.59346476  0.78030957  0.84246646     0.07200
C3605       C  0.60930846  0.80124728  0.85371711    -0.02600
C3606       C  0.64109962  0.80052422  0.85450583    -0.02600
C3607       C  0.65732536  0.77924554  0.84377934     0.07300
C3608       C  0.64145018  0.75884502  0.83216627    -0.02800
Br3609     Br  0.66302067  0.73113542  0.81613122    -0.01300
Br3610     Br  0.58864528  0.73258745  0.81456374    -0.01400
Br3611     Br  0.66216369  0.82774509  0.87114644    -0.01400
Br3612     Br  0.58763803  0.83043038  0.86862875    -0.01400
C3613       C  0.88917981  0.94136657  0.85512064    -0.02500
C3614       C  0.90467990  0.45775786  0.84235592     0.07200
C3615       C  0.88803093  0.45640228  0.82552691    -0.02600
C3616       C  0.85623575  0.45566744  0.82595861    -0.02600
C3617       C  0.84096082  0.45672053  0.84320632     0.07300
C3618       C  0.85734115  0.94172878  0.85537774    -0.02800
Br3619     Br  0.83606207  0.91369605  0.87127663    -0.01300
Br3620     Br  0.91057599  0.91297522  0.87081418    -0.01400
Br3621     Br  0.83348822  0.45228267  0.80299277    -0.01400
Br3622     Br  0.90885556  0.45524760  0.80190867    -0.01400
C3623       C  0.63836605  0.97373994  0.86184685    -0.02500
C3624       C  0.65475820  0.46422965  0.84391118     0.07200
C3625       C  0.63935052  0.48600557  0.83305709    -0.02600
C3626       C  0.60754246  0.48562974  0.83190708    -0.02600
C3627       C  0.59087199  0.46380526  0.84184405     0.07300
C3628       C  0.60655705  0.97370679  0.86122879    -0.02800
Br3629     Br  0.58393752  0.98864718  0.88237328    -0.01300
Br3630     Br  0.65901971  0.98658961  0.88432104    -0.01400
Br3631     Br  0.58708652  0.51351662  0.81545325    -0.01400
Br3632     Br  0.66170434  0.51524863  0.81869135    -0.01400
C3633       C  0.71997420  0.78273938  0.77520484    -0.02500
C3634       C  0.74219481  0.76605850  0.78494490     0.07200
C3635       C  0.76060801  0.74579747  0.77483380    -0.02600
C3636       C  0.75689805  0.74230870  0.75526181    -0.02600
C3637       C  0.73515724  0.75956848  0.74541959     0.07300
C3638       C  0.71694678  0.78006566  0.75557334    -0.02800
Br3639     Br  0.68893590  0.80624109  0.74263873    -0.01300
Br3640     Br  0.69219702  0.80812594  0.78884868    -0.01400
Br3641     Br  0.78102937  0.71280239  0.74220343    -0.01400
Br3642     Br  0.79191109  0.72352617  0.78763480    -0.01400
C3643       C  0.74717421  0.86236200  0.69830973    -0.02500
C3644       C  0.72614157  0.84700586  0.68684810     0.07200
C3645       C  0.70580560  0.86374774  0.67570578    -0.02600
C3646       C  0.70605076  0.89549569  0.67632252    -0.02600
C3647       C  0.72711869  0.91089509  0.68777316     0.07300
C3648       C  0.74812421  0.89410763  0.69846823    -0.02800
Br3649     Br  0.77763588  0.91418626  0.71411098    -0.01300
Br3650     Br  0.77335420  0.84006332  0.71501586    -0.01400
Br3651     Br  0.67827505  0.91772115  0.66060478    -0.01400
Br3652     Br  0.67838248  0.84338360  0.65882836    -0.01400
C3653       C  0.73787739  0.61200061  0.67565115    -0.02500
C3654       C  0.72467004  0.59676912  0.69091265     0.07200
C3655       C  0.71118636  0.61365096  0.70542300    -0.02600
C3656       C  0.71098185  0.64544462  0.70469900    -0.02600
C3657       C  0.72440065  0.66066103  0.68949780     0.07300
C3658       C  0.73790501  0.64376305  0.67500310    -0.02800
Br3659     Br  0.75520390  0.66403854  0.65367971    -0.01300
Br3660     Br  0.75437353  0.58938209  0.65494607    -0.01400
Br3661     Br  0.69357108  0.66814373  0.72507260    -0.01400
Br3662     Br  0.69418069  0.59327611  0.72678592    -0.01400
C3663       C  0.75262777  0.50985622  0.75911656    -0.02500
C3664       C  0.73208104  0.49304678  0.74809955     0.07200
C3665       C  0.72708291  0.96532955  0.75575097    -0.02600
C3666       C  0.73252685  0.95833222  0.77480547    -0.02600
C3667       C  0.74148297  0.47886339  0.78686749     0.07300
C3668       C  0.75773283  0.50251065  0.77818203    -0.02800
Br3669     Br  0.78815713  0.52442796  0.79203355    -0.01300
Br3670     Br  0.77254958  0.54439451  0.74840790    -0.01400
Br3671     Br  0.72586401  0.91707922  0.78245377    -0.01400
Br3672     Br  0.70923625  0.93547886  0.73940520    -0.01400
C3673       C  0.53131407  0.77783115  0.75424692    -0.02500
C3674       C  0.01470250  0.75555238  0.74454485     0.07200
C3675       C  0.99400654  0.73792408  0.75484188    -0.02600
C3676       C  0.98960508  0.74307009  0.77421514    -0.02600
C3677       C  0.50634487  0.76512040  0.78388655     0.07300
C3678       C  0.52739387  0.78248581  0.77368229    -0.02800
Br3679     Br  0.55244873  0.81176616  0.78640310    -0.01300
Br3680     Br  0.55830919  0.80398580  0.74064902    -0.01400
Br3681     Br  0.95962454  0.71986669  0.78744908    -0.01400
Br3682     Br  0.97256273  0.70550211  0.74275185    -0.01400
C3683       C  0.00485695  0.88590387  0.69671346    -0.02500
C3684       C  0.02501063  0.90247935  0.68546226     0.07200
C3685       C  0.54563874  0.88669793  0.67365932    -0.02600
C3686       C  0.54666531  0.85499191  0.67368323    -0.02600
C3687       C  0.02692768  0.83892337  0.68531082     0.07300
C3688       C  0.00613572  0.85428315  0.69684053    -0.02800
Br3689     Br  0.98048604  0.83226929  0.71387202    -0.01300
Br3690     Br  0.97570680  0.90616434  0.71244090    -0.01400
Br3691     Br  0.57394351  0.83429907  0.65697808    -0.01400
Br3692     Br  0.57041634  0.90888003  0.65623188    -0.01400
C3693       C  0.00022918  0.63666459  0.69310801    -0.02500
C3694       C  0.02650688  0.65289826  0.68799690     0.07200
C3695       C  0.55273662  0.63615824  0.68225439    -0.02600
C3696       C  0.55263713  0.60435145  0.68204967    -0.02600
C3697       C  0.02593327  0.58848145  0.68719695     0.07300
C3698       C  0.99975906  0.60489018  0.69239109    -0.02800
Br3699     Br  0.96257134  0.58465919  0.69905666    -0.01300
Br3700     Br  0.96442234  0.65718209  0.70199071    -0.01400
Br3701     Br  0.58877923  0.58390601  0.67356319    -0.01400
Br3702     Br  0.58841371  0.65676856  0.67325403    -0.01400
C3703       C  0.52440015  0.45928786  0.77376014    -0.02500
C3704       C  0.00262002  0.47638143  0.78388768     0.07200
C3705       C  0.99563468  0.00303290  0.77699318    -0.02600
C3706       C  0.00094648  0.00828148  0.75768753    -0.02600
C3707       C  0.01318836  0.48793228  0.74499121     0.07300
C3708       C  0.52970490  0.46488722  0.75455962    -0.02800
Br3709     Br  0.55855260  0.44004909  0.74136086    -0.01300
Br3710     Br  0.54842829  0.42897518  0.78628561    -0.01400
Br3711     Br  0.99237034  0.04719983  0.74696562    -0.01400
Br3712     Br  0.97631265  0.03479104  0.79108966    -0.01400
loop_ 
_geom_bond_atom_site_label_1 
_geom_bond_atom_site_label_2 
_geom_bond_distance 
_geom_bond_site_symmetry_2 
_ccdc_geom_bond_type 
O1           Cu9   2.050       .  S
O1           C11   1.282       .  A
O2           Cu9   2.036       .  S
O2         C2796   1.282       .  A
O3           Cu9   2.003       .  S
O3           C13   1.277       .  A
O4         Cu937   2.021   1_545  S
O4           C14   1.279       .  A
O5          Cu10   2.006   1_545  S
O5         C1870   1.276       .  A
O6         Cu938   2.003       .  S
O6         C1869   1.277       .  A
O7          Cu10   2.041       .  S
O7           C12   1.281       .  A
O8          Cu10   2.015       .  S
O8         C2795   1.279       .  A
Cu9         O932   2.007       .  S
Cu9       Cu2794   2.365       .  S
Cu10        O934   1.998       .  S
Cu10      Cu2793   2.365       .  S
C11        O2792   1.279       .  A
C11        C1331   1.485       .  S
C12        O2786   1.281       .  A
C12         C923   1.500       .  S
C13        O1862   1.277       .  A
C13        C2756   1.473       .  S
C14        O1861   1.276       .  A
C14        C2769   1.500       .  S
O15         Cu23   2.014       .  S
O15          C25   1.278       .  A
O16         Cu23   2.005       .  S
O16          C26   1.277       .  A
O17         Cu23   2.021       .  S
O17          C27   1.279       .  A
O18         Cu23   2.034       .  S
O18          C28   1.280       .  A
O19         Cu24   2.034       .  S
O19        C1884   1.281       .  A
O20         Cu24   2.049       .  S
O20        C1883   1.282       .  A
O21         Cu24   2.005       .  S
O21        C1882   1.277       .  A
O22         Cu24   2.009       .  S
O22        C1881   1.277       .  A
Cu23      Cu1880   2.365       .  S
Cu24      Cu1879   2.365   1_455  S
C25        O1878   1.277       .  A
C25         C910   1.499       .  S
C26        O1877   1.277       .  A
C26         C903   1.474       .  S
C27        O1876   1.282       .  A
C27        C2273   1.488       .  S
C28        O1875   1.281       .  A
C28         C890   1.503       .  S
O29         Cu37   2.038       .  S
O29          C39   1.281       .  A
O30         Cu37   2.037       .  S
O30          C40   1.281       .  A
O31         Cu37   2.012       .  S
O31          C41   1.278       .  A
O32        Cu965   2.020       .  S
O32          C42   1.279       .  A
O33         Cu38   2.023       .  S
O33          C42   1.279       .  A
O34        Cu966   2.006       .  S
O34          C41   1.277       .  A
O35        Cu966   2.043       .  S
O35          C40   1.282       .  A
O36        Cu966   2.046       .  S
O36          C39   1.282       .  A
Cu37        O960   2.023       .  S
Cu37       Cu966   2.369       .  S
Cu38        O962   2.011   1_545  S
Cu38        O963   2.036   1_545  S
Cu38        O964   2.036       .  S
Cu38       Cu965   2.369       .  S
C39         C433   1.493       .  S
C40        C1808   1.505       .  S
C41         C863   1.478       .  S
C42         C870   1.490       .  S
O43         Cu51   2.022       .  S
O43          C53   1.279       .  A
O44         Cu51   2.015       .  S
O44          C54   1.278       .  A
O45         Cu51   2.036       .  S
O45          C55   1.281       .  A
O46         Cu51   2.034       .  S
O46          C56   1.281       .  A
O47         Cu52   2.023       .  S
O47          C56   1.279       .  A
O48         Cu52   2.027       .  S
O48          C55   1.280       .  A
O49         Cu52   2.005       .  S
O49          C54   1.277       .  A
O50         Cu52   2.016       .  S
O50          C53   1.278       .  A
Cu51        Cu52   2.370       .  S
C53         C873   1.488       .  S
C54         C860   1.478       .  S
C55         C445   1.485       .  S
C56         C853   1.499       .  S
O57         Cu65   2.052       .  S
O57         C995   1.282       .  A
O58         Cu65   2.039       .  S
O58         C996   1.282       .  A
O59       Cu1921   2.002   1_455  S
O59         C997   1.277       .  A
O60         Cu65   2.010       .  S
O60         C998   1.276       .  A
O61         Cu66   2.016       .  S
O61          C70   1.278       .  A
O62       Cu1922   2.003   1_455  S
O62          C69   1.276       .  A
O63         Cu66   2.038       .  S
O63          C68   1.280       .  A
O64         Cu66   2.021       .  S
O64          C67   1.283       .  A
Cu65       O1915   2.002       .  S
Cu65       Cu994   2.368       .  S
Cu66       O1918   2.003       .  S
Cu66       Cu993   2.365       .  S
C67         O985   1.277       .  A
C67        C2204   1.483       .  S
C68         O986   1.281       .  A
C68         C920   1.524       .  S
C69         O987   1.278       .  A
C69         C843   1.476       .  S
C70         O988   1.278       .  A
C70         C830   1.487       .  S
O71         Cu79   2.027   1_455  S
O71          C81   1.280       .  A
O72         Cu79   2.022       .  S
O72          C82   1.280       .  A
O73       Cu1935   2.018       .  S
O73          C83   1.278       .  A
O74         Cu79   2.007   1_455  S
O74          C84   1.278       .  A
O75         Cu80   2.012   1_455  S
O75          C84   1.278       .  A
O76       Cu1936   2.017       .  S
O76          C83   1.278       .  A
O77         Cu80   2.028       .  S
O77          C82   1.279       .  A
O78         Cu80   2.025   1_455  S
O78          C81   1.280       .  A
Cu79       O1929   2.018       .  S
Cu79        Cu80   2.371       .  S
Cu80       O1932   2.017       .  S
C81         C893   1.497       .  S
C82         C361   1.480       .  S
C83         C813   1.483       .  S
C84         C820   1.480       .  S
O85         Cu93   2.028       .  S
O85          C95   1.278       .  A
O86         Cu93   2.011       .  S
O86          C96   1.278       .  A
O87         Cu93   2.024       .  S
O87          C97   1.280       .  A
O88         Cu93   2.017       .  S
O88          C98   1.278       .  A
O89         Cu94   2.004       .  S
O89        C1026   1.277       .  A
O90         Cu94   2.010       .  S
O90        C1025   1.276       .  A
O91         Cu94   2.055       .  S
O91        C1024   1.283       .  A
O92         Cu94   2.048       .  S
O92        C1023   1.284       .  A
Cu93      Cu1022   2.365       .  S
Cu94      Cu1021   2.368       .  S
C95        O1020   1.282       .  A
C95         C883   1.524       .  S
C96        O1019   1.281       .  A
C96         C377   1.481       .  S
C97        O1018   1.275       .  A
C97         C833   1.484       .  S
C98        O1017   1.277       .  A
C98         C840   1.478       .  S
O99        Cu107   2.026       .  S
O99         C109   1.280       .  A
O100       Cu107   2.020       .  S
O100        C110   1.279       .  A
O101       Cu107   2.006       .  S
O101        C111   1.277       .  A
O102       Cu107   2.011       .  S
O102        C112   1.277       .  A
O103       Cu108   2.019       .  S
O103        C112   1.279       .  A
O104       Cu108   2.019       .  S
O104        C111   1.279       .  A
O105       Cu108   2.021       .  S
O105        C110   1.278       .  A
O106       Cu108   2.023       .  S
O106        C109   1.279       .  A
Cu107      Cu108   2.372       .  S
C109        C850   1.494       .  S
C110        C389   1.475       .  S
C111        C823   1.482       .  S
C112        C810   1.482       .  S
O113       Cu121   2.029   1_545  S
O113       C1979   1.280       .  A
O114       Cu121   2.027       .  S
O114       C2908   1.280       .  A
O115       Cu121   2.027   1_545  S
O115       C1981   1.279       .  A
O116      Cu1049   2.006       .  S
O116       C1982   1.278       .  A
O117       Cu122   2.006       .  S
O117        C126   1.277       .  A
O118      Cu1050   2.016   1_545  S
O118        C125   1.279       .  A
O119       Cu122   2.014       .  S
O119        C124   1.277       .  A
O120       Cu122   2.010       .  S
O120       C1051   1.277       .  A
Cu121      O1044   2.008       .  S
Cu121     Cu2906   2.371   1_455  S
Cu122      O1046   2.018       .  S
Cu122     Cu2905   2.369       .  S
C123       O1969   1.280       .  A
C123       O1048   1.277       .  A
C123       C2035   1.474       .  S
C124       O2898   1.281       .  A
C124        C800   1.488       .  S
C125       O1971   1.279       .  A
C125        C790   1.491       .  S
C126       O1972   1.278       .  A
C126        C783   1.484       .  S
O127       Cu135   2.016       .  S
O127       C1993   1.279       .  A
O128       Cu135   2.003       .  S
O128       C1994   1.277       .  A
O129       Cu135   2.031       .  S
O129       C1995   1.280       .  A
O130       Cu135   2.024       .  S
O130       C1996   1.279       .  A
O131       Cu136   2.029       .  S
O131        C140   1.280       .  A
O132       Cu136   2.027       .  S
O132        C139   1.280       .  A
O133       Cu136   2.011       .  S
O133        C138   1.278       .  A
O134       Cu136   2.025       .  S
O134        C137   1.280       .  A
Cu135     Cu1992   2.369       .  S
Cu136     Cu1991   2.369   1_455  S
C137       O1983   1.279   1_455  A
C137        C793   1.491       .  S
C138       O1984   1.277   1_455  A
C138        C780   1.486       .  S
C139       O1985   1.280   1_455  A
C139        C773   1.493       .  S
C140       O1986   1.279       .  A
C140        C194   1.481       .  S
O141      Cu1077   2.020       .  S
O141        C151   1.280       .  A
O142       Cu149   2.004       .  S
O142        C152   1.277       .  A
O143       Cu149   2.048       .  S
O143        C153   1.282       .  A
O144       Cu149   2.025       .  S
O144        C154   1.279       .  A
O145      Cu1078   2.033       .  S
O145        C154   1.280       .  A
O146      Cu1078   2.018       .  S
O146        C153   1.279       .  A
O147      Cu1078   2.002       .  S
O147        C152   1.277       .  A
O148       Cu150   2.010       .  S
O148        C151   1.277       .  A
Cu149      O1069   2.015       .  S
Cu149     Cu1078   2.365       .  S
Cu150      O1073   2.041       .  S
Cu150      O1074   2.024       .  S
Cu150      O1075   1.996   1_545  S
Cu150     Cu1077   2.368       .  S
C151        C750   1.496       .  S
C152        C740   1.480       .  S
C153        C207   1.487       .  S
C154        C760   1.491       .  S
O155       Cu163   2.036       .  S
O155        C165   1.280       .  A
O156       Cu163   2.023       .  S
O156        C166   1.280       .  A
O157       Cu163   2.013       .  S
O157        C167   1.278       .  A
O158       Cu163   2.003       .  S
O158        C168   1.277       .  A
O159       Cu164   2.003       .  S
O159        C168   1.277       .  A
O160       Cu164   2.018       .  S
O160        C167   1.278       .  A
O161       Cu164   2.034       .  S
O161        C166   1.280       .  A
O162       Cu164   2.018       .  S
O162        C165   1.279       .  A
Cu163      Cu164   2.368       .  S
C165        C223   1.481       .  S
C166        C730   1.500       .  S
C167        C753   1.496       .  S
C168        C743   1.476       .  S
O169       Cu177   2.010       .  S
O169       C2035   1.278   1_565  A
O170       Cu177   2.020       .  S
O170       C2964   1.278       .  A
O171       Cu177   2.022   1_545  S
O171       C2037   1.279       .  A
O172      Cu1105   2.021       .  S
O172       C2038   1.279       .  A
O173       Cu178   2.015       .  S
O173        C182   1.278       .  A
O174      Cu1106   2.007   1_545  S
O174        C181   1.277       .  A
O175       Cu178   2.032       .  S
O175        C180   1.281       .  A
O176       Cu178   2.031       .  S
O176       C1107   1.279       .  A
Cu177      O1100   2.027       .  S
Cu177     Cu2962   2.372       .  S
Cu178      O1102   2.011       .  S
Cu178     Cu2961   2.372       .  S
C179       O2025   1.278   1_545  A
C179       O1104   1.279       .  A
C179       C1979   1.474       .  S
C180       O2954   1.279       .  A
C180        C720   1.492       .  S
C181       O2027   1.279       .  A
C181        C710   1.485       .  S
C182       O2028   1.279       .  A
C182        C700   1.485       .  S
O183       Cu191   2.031       .  S
O183        C193   1.280       .  A
O184       Cu191   2.028       .  S
O184        C194   1.280       .  A
O185       Cu191   2.018       .  S
O185        C195   1.279       .  A
O186       Cu191   2.012       .  S
O186        C196   1.278       .  A
O187       Cu192   2.013       .  S
O187       C2052   1.278       .  A
O188       Cu192   2.019       .  S
O188       C2051   1.279       .  A
O189       Cu192   2.026       .  S
O189       C2050   1.279       .  A
O190       Cu192   2.033       .  S
O190       C2049   1.281       .  A
Cu191     Cu2048   2.371       .  S
Cu192     Cu2047   2.371       .  S
C193       O2046   1.281       .  A
C193        C690   1.497       .  S
C194       O2045   1.279       .  A
C195       O2044   1.279       .  A
C195        C703   1.485       .  S
C196       O2043   1.278       .  A
C196        C713   1.483       .  S
O197       Cu205   2.019       .  S
O197        C207   1.279       .  A
O198       Cu205   2.028       .  S
O198        C208   1.279       .  A
O199       Cu205   2.027       .  S
O199        C209   1.280       .  A
O200      Cu1133   2.026       .  S
O200        C210   1.280       .  A
O201      Cu1134   2.015       .  S
O201        C210   1.277       .  A
O202       Cu206   2.007       .  S
O202        C209   1.277       .  A
O203       Cu206   2.063       .  S
O203        C208   1.285       .  A
O204       Cu206   2.051       .  S
O204        C207   1.282       .  A
Cu205      O1128   2.024       .  S
Cu205      Cu206   2.369       .  S
Cu206      O1129   2.008       .  S
C208        C680   1.510       .  S
C209        C663   1.486       .  S
C210        C673   1.486       .  S
O211       Cu219   2.001       .  S
O211        C221   1.276       .  A
O212       Cu219   2.019       .  S
O212        C222   1.279       .  A
O213       Cu219   2.047       .  S
O213        C223   1.282       .  A
O214       Cu219   2.056       .  S
O214        C224   1.283       .  A
O215       Cu220   2.013       .  S
O215        C224   1.278       .  A
O216       Cu220   2.007       .  S
O216        C223   1.277       .  A
O217       Cu220   2.019       .  S
O217        C222   1.278       .  A
O218       Cu220   2.021       .  S
O218        C221   1.279       .  A
Cu219      Cu220   2.366       .  S
C221        C670   1.478       .  S
C222        C660   1.487       .  S
C224        C650   1.517       .  S
O225      Cu2089   1.998       .  S
O225        C235   1.277       .  A
O226       Cu233   2.007       .  S
O226        C236   1.277       .  A
O227       Cu233   2.032       .  S
O227        C237   1.280   1_455  A
O228       Cu233   2.041   1_655  S
O228        C238   1.282       .  A
O229      Cu2090   2.019   1_655  S
O229       C1166   1.279   1_655  A
O230      Cu2090   2.004       .  S
O230       C1165   1.277       .  A
O231      Cu2090   2.016       .  S
O231       C1164   1.278       .  A
O232       Cu234   2.014       .  S
O232       C1163   1.278       .  A
Cu233      O2081   1.999   1_455  S
Cu233     Cu3018   2.371   1_455  S
Cu234      O2085   2.018       .  S
Cu234      O2086   2.004       .  S
Cu234      O2087   2.016       .  S
Cu234     Cu3017   2.372       .  S
C235       O1160   1.278       .  A
C235        C620   1.481       .  S
C236       O1159   1.279       .  A
C236        C630   1.485       .  S
C237       O1158   1.278       .  A
C237       C2148   1.476       .  S
C238       O1157   1.279       .  A
C238       C1571   1.495       .  S
O239       Cu247   2.020       .  S
O239        C249   1.279       .  A
O240       Cu247   2.016       .  S
O240        C250   1.279       .  A
O241      Cu2103   2.017       .  S
O241        C251   1.279       .  A
O242       Cu247   2.013       .  S
O242        C252   1.278       .  A
O243       Cu248   2.010       .  S
O243        C252   1.278       .  A
O244      Cu2104   2.018       .  S
O244        C251   1.279       .  A
O245       Cu248   2.037       .  S
O245        C250   1.280       .  A
O246       Cu248   2.033       .  S
O246        C249   1.281       .  A
Cu247      O2097   2.016   1_455  S
Cu247      Cu248   2.371       .  S
Cu248      O2100   2.017   1_455  S
C249        C613   1.496       .  S
C250        C306   1.481       .  S
C251        C590   1.486       .  S
C252        C603   1.477       .  S
O253       Cu261   2.013       .  S
O253       C1191   1.278       .  A
O254       Cu261   2.003       .  S
O254       C1192   1.278       .  A
O255       Cu261   2.011       .  S
O255       C1193   1.278       .  A
O256       Cu261   2.011       .  S
O256       C1194   1.277       .  A
O257       Cu262   2.009       .  S
O257        C266   1.278       .  A
O258       Cu262   2.005       .  S
O258        C265   1.278       .  A
O259       Cu262   2.026       .  S
O259        C264   1.279       .  A
O260       Cu262   2.034       .  S
O260        C263   1.280       .  A
Cu261     Cu1190   2.372       .  S
Cu262     Cu1189   2.372       .  S
C263       O1181   1.279       .  A
C263        C580   1.489       .  S
C264       O1182   1.278       .  A
C264        C320   1.474       .  S
C265       O1183   1.277       .  A
C265        C623   1.481       .  S
C266       O1184   1.279       .  A
C266        C633   1.486       .  S
O267       Cu275   2.028       .  S
O267        C277   1.281       .  A
O268       Cu275   2.033       .  S
O268        C278   1.280       .  A
O269       Cu275   2.009       .  S
O269        C279   1.277       .  A
O270       Cu275   2.000       .  S
O270        C280   1.276       .  A
O271       Cu276   2.023       .  S
O271        C280   1.279       .  A
O272       Cu276   2.025       .  S
O272        C279   1.280       .  A
O273       Cu276   2.006       .  S
O273        C278   1.277       .  A
O274       Cu276   2.010       .  S
O274        C277   1.277       .  A
Cu275      Cu276   2.372       .  S
C277        C570   1.490       .  S
C278        C334   1.475       .  S
C279        C593   1.486       .  S
C280        C600   1.477       .  S
O281       Cu289   2.016       .  S
O281       C1219   1.278       .  A
O282       Cu289   2.002       .  S
O282       C1220   1.277       .  A
O283       Cu289   2.011       .  S
O283       C1221   1.277       .  A
O284      Cu2145   2.000       .  S
O284       C1222   1.277       .  A
O285      Cu2146   2.019   1_455  S
O285        C294   1.279       .  A
O286       Cu290   2.025       .  S
O286        C293   1.279       .  A
O287       Cu290   2.031       .  S
O287        C292   1.280       .  A
O288       Cu290   2.036       .  S
O288        C291   1.280       .  A
Cu289      O2140   1.998       .  S
Cu289     Cu1218   2.364       .  S
Cu290      O2141   2.019       .  S
Cu290     Cu1217   2.365       .  S
C291       O1209   1.277       .  A
C291        C803   1.517       .  S
C292       O1210   1.278       .  A
C292       C2093   1.476       .  S
C293       O1211   1.278       .  A
C293        C550   1.486       .  S
C294       O1212   1.275       .  A
C294        C560   1.476       .  S
O295       Cu303   2.044       .  S
O295        C305   1.283       .  A
O296       Cu303   2.042       .  S
O296        C306   1.281       .  A
O297      Cu2159   2.004       .  S
O297        C307   1.276       .  A
O298       Cu303   2.008       .  S
O298        C308   1.277       .  A
O299       Cu304   2.013       .  S
O299        C308   1.279       .  A
O300      Cu2160   2.022       .  S
O300        C307   1.280       .  A
O301       Cu304   2.013       .  S
O301        C306   1.278       .  A
O302       Cu304   2.014       .  S
O302        C305   1.277       .  A
Cu303      O2153   2.005   1_455  S
Cu303      Cu304   2.368       .  S
Cu304      O2156   2.022   1_455  S
C305        C770   1.504       .  S
C307        C530   1.486       .  S
C308        C540   1.480       .  S
O309       Cu317   2.034       .  S
O309        C319   1.280       .  A
O310       Cu317   2.027       .  S
O310        C320   1.280       .  A
O311       Cu317   2.005       .  S
O311        C321   1.276       .  A
O312       Cu317   2.005       .  S
O312        C322   1.277       .  A
O313       Cu318   2.014       .  S
O313       C1250   1.279       .  A
O314       Cu318   2.023       .  S
O314       C1249   1.279       .  A
O315       Cu318   1.998       .  S
O315       C1248   1.276       .  A
O316       Cu318   2.013       .  S
O316       C1247   1.277       .  A
Cu317     Cu1246   2.366       .  S
Cu318     Cu1245   2.362       .  S
C319       O1244   1.277       .  A
C319        C763   1.514       .  S
C320       O1243   1.278       .  A
C321       O1242   1.281       .  A
C321        C553   1.484       .  S
C322       O1241   1.279       .  A
C322        C563   1.481       .  S
O323       Cu331   2.018       .  S
O323        C333   1.278       .  A
O324       Cu331   2.012       .  S
O324        C334   1.278       .  A
O325       Cu331   2.010       .  S
O325        C335   1.278       .  A
O326       Cu331   2.008       .  S
O326        C336   1.278       .  A
O327       Cu332   2.013       .  S
O327        C336   1.278       .  A
O328       Cu332   2.014       .  S
O328        C335   1.279       .  A
O329       Cu332   2.028       .  S
O329        C334   1.279       .  A
O330       Cu332   2.026       .  S
O330        C333   1.280       .  A
Cu331      Cu332   2.371       .  S
C333        C733   1.490       .  S
C335        C533   1.483       .  S
C336        C543   1.483       .  S
O337       Cu345   2.047       .  S
O337       C1275   1.282       .  A
O338       Cu345   2.052   1_455  S
O338       C1276   1.282       .  A
O339       Cu345   2.005   1_455  S
O339       C1277   1.276       .  A
O340      Cu2201   1.998       .  S
O340       C1278   1.277       .  A
O341      Cu2202   2.019       .  S
O341        C350   1.279       .  A
O342       Cu346   2.023       .  S
O342        C349   1.280       .  A
O343       Cu346   2.013       .  S
O343        C348   1.275       .  A
O344       Cu346   2.019       .  S
O344        C347   1.278       .  A
Cu345      O2196   1.999       .  S
Cu345     Cu1274   2.365   1_655  S
Cu346      O2197   2.019   1_455  S
Cu346     Cu1273   2.370       .  S
C347       O1265   1.282       .  A
C347        C640   1.495       .  S
C348       O1266   1.285       .  A
C348       C1923   1.483   1_455  S
C349       O1267   1.277       .  A
C349        C523   1.488       .  S
C350       O1268   1.277       .  A
C350        C513   1.480       .  S
O351       Cu359   2.034       .  S
O351        C361   1.281   1_455  A
O352       Cu359   2.035       .  S
O352        C362   1.281       .  A
O353       Cu359   2.012       .  S
O353        C363   1.278       .  A
O354      Cu2215   2.016       .  S
O354        C364   1.278       .  A
O355      Cu2216   2.013       .  S
O355        C364   1.278       .  A
O356       Cu360   2.013       .  S
O356        C363   1.278       .  A
O357       Cu360   2.017       .  S
O357        C362   1.279       .  A
O358       Cu360   2.016       .  S
O358        C361   1.278   1_455  A
Cu359      O2210   2.016   1_455  S
Cu359      Cu360   2.371       .  S
Cu360      O2211   2.013   1_455  S
C362        C610   1.495       .  S
C363        C503   1.480       .  S
C364        C490   1.485       .  S
O365       Cu373   2.017       .  S
O365        C375   1.280       .  A
O366       Cu373   2.019       .  S
O366        C376   1.279       .  A
O367       Cu373   2.006       .  S
O367        C377   1.277       .  A
O368       Cu373   2.011       .  S
O368       C1306   1.277       .  A
O369       Cu374   2.038       .  S
O369        C378   1.281       .  A
O370       Cu374   2.045       .  S
O370       C1305   1.281       .  A
O371       Cu374   2.012       .  S
O371       C1304   1.279       .  A
O372       Cu374   2.013       .  S
O372       C1303   1.278       .  A
Cu373     Cu1302   2.371       .  S
Cu374     Cu1301   2.367       .  S
C375       O1300   1.277       .  A
C375        C520   1.487       .  S
C376       O1299   1.278       .  A
C376        C510   1.480       .  S
C377       O1298   1.282       .  A
C378       O1296   1.278       .  A
C378        C583   1.489       .  S
O379       Cu387   2.026       .  S
O379        C389   1.280       .  A
O380       Cu387   2.025       .  S
O380        C390   1.280       .  A
O381       Cu387   2.009       .  S
O381        C391   1.277       .  A
O382       Cu387   1.997       .  S
O382        C392   1.276       .  A
O383       Cu388   2.023       .  S
O383        C392   1.279       .  A
O384       Cu388   2.029       .  S
O384        C391   1.281       .  A
O385       Cu388   2.011       .  S
O385        C390   1.278       .  A
O386       Cu388   2.012       .  S
O386        C389   1.277       .  A
Cu387      Cu388   2.372       .  S
C390        C573   1.488       .  S
C391        C493   1.487       .  S
C392        C500   1.480       .  S
O393       Cu401   2.055       .  S
O393        C403   1.283       .  A
O394       Cu401   2.043       .  S
O394       C1332   1.282       .  A
O395       Cu401   1.998   1_545  S
O395        C405   1.276       .  A
O396      Cu1329   2.007       .  S
O396        C406   1.277       .  A
O397       Cu402   2.018       .  S
O397       C2262   1.279       .  A
O398      Cu1330   2.022   1_545  S
O398       C2261   1.280       .  A
O399       Cu402   2.012       .  S
O399       C2260   1.277       .  A
O400       Cu402   2.010       .  S
O400       C3187   1.277       .  A
Cu401      O1324   2.009       .  S
Cu401     Cu3186   2.369       .  S
Cu402      O1326   2.020       .  S
Cu402     Cu3185   2.370       .  S
C403       O3184   1.277       .  A
C403        C939   1.486       .  S
C404       O1322   1.283       .  A
C404       O2255   1.277       .  A
C404        C723   1.492       .  S
C405       O2254   1.280       .  A
C405        C483   1.488       .  S
C406       O2253   1.279       .  A
C406        C470   1.482       .  S
O407       Cu415   2.053       .  S
O407        C417   1.283       .  A
O408       Cu415   2.044       .  S
O408        C418   1.282       .  A
O409       Cu415   2.008       .  S
O409        C419   1.277       .  A
O410       Cu415   2.010       .  S
O410        C420   1.277       .  A
O411       Cu416   2.014       .  S
O411       C2276   1.279       .  A
O412       Cu416   2.011       .  S
O412       C2275   1.278       .  A
O413       Cu416   2.020       .  S
O413       C2274   1.279       .  A
O414       Cu416   2.018       .  S
O414       C2273   1.279       .  A
Cu415     Cu2272   2.369       .  S
Cu416     Cu2271   2.369       .  S
C417       O2270   1.278       .  A
C417       C1883   1.488       .  S
C418       O2269   1.279       .  A
C418        C693   1.496       .  S
C419       O2268   1.278       .  A
C419        C473   1.480       .  S
C420       O2267   1.278       .  A
C420        C480   1.488       .  S
O421      Cu1357   2.010       .  S
O421        C431   1.277       .  A
O422       Cu429   2.012       .  S
O422        C432   1.278       .  A
O423       Cu429   2.046       .  S
O423        C433   1.282       .  A
O424       Cu429   2.051       .  S
O424        C434   1.283       .  A
O425       Cu430   2.038       .  S
O425       C1362   1.281       .  A
O426      Cu1358   2.039       .  S
O426        C433   1.281       .  A
O427      Cu1358   2.024       .  S
O427        C432   1.279       .  A
O428       Cu430   2.018       .  S
O428        C431   1.279       .  A
Cu429      O1349   2.009       .  S
Cu429     Cu1358   2.368       .  S
Cu430      O1354   2.035       .  S
Cu430      O1355   2.023   1_545  S
Cu430     Cu1357   2.369       .  S
C431        C463   1.480       .  S
C432        C450   1.486       .  S
C434       O1353   1.282       .  A
C434        C683   1.511       .  S
O435       Cu443   2.026       .  S
O435        C445   1.279       .  A
O436       Cu443   2.026       .  S
O436        C446   1.279       .  A
O437       Cu443   2.011       .  S
O437        C447   1.277       .  A
O438       Cu443   2.018       .  S
O438        C448   1.278       .  A
O439       Cu444   2.019       .  S
O439        C448   1.278       .  A
O440       Cu444   2.029       .  S
O440        C447   1.280       .  A
O441       Cu444   2.048       .  S
O441        C446   1.281       .  A
O442       Cu444   2.039       .  S
O442        C445   1.281       .  A
Cu443      Cu444   2.363       .  S
C446        C653   1.524       .  S
C447        C453   1.487       .  S
C448        C460   1.483       .  S
C449        C450   1.412       .  A
C449        C454   1.410       .  A
C449       Br456   1.932       .  S
C450        C451   1.413       .  A
C451        C452   1.413       .  A
C451       Br458   1.932       .  S
C452        C453   1.414       .  A
C452       Br457   1.932       .  S
C453        C454   1.412       .  A
C454       Br455   1.929       .  S
C459        C460   1.411       .  A
C459        C464   1.409       .  A
C459       Br466   1.925       .  S
C460        C461   1.412       .  A
C461        C462   1.411       .  A
C461       Br468   1.931       .  S
C462        C463   1.412       .  A
C462       Br467   1.931       .  S
C463        C464   1.410       .  A
C464       Br465   1.932       .  S
C469        C470   1.412       .  A
C469        C474   1.409       .  A
C469       Br476   1.931   1_455  S
C470       C2327   1.413       .  A
C471        C472   1.409       .  A
C471       C2326   1.413       .  A
C471       Br478   1.933       .  S
C472       C2329   1.412       .  A
C472       Br477   1.932       .  S
C473        C474   1.411       .  A
C473       C2328   1.412       .  A
C474       Br475   1.932   1_455  S
C479        C484   1.409       .  A
C479       C2336   1.413       .  A
C479       Br486   1.933       .  S
C480        C481   1.414       .  A
C480       C2335   1.414       .  A
C481        C482   1.411       .  A
C481       Br488   1.934   1_455  S
C482        C483   1.414       .  A
C482       Br487   1.933   1_455  S
C483       C2340   1.416       .  A
C484       C2339   1.415       .  A
C484       Br485   1.935       .  S
C489        C490   1.412       .  A
C489        C494   1.411       .  A
C489       Br496   1.933       .  S
C490        C491   1.412       .  A
C491        C492   1.410       .  A
C491       Br498   1.933       .  S
C492        C493   1.414       .  A
C492       Br497   1.933       .  S
C493        C494   1.413       .  A
C494       Br495   1.931       .  S
C499        C500   1.411       .  A
C499        C504   1.406       .  A
C499       Br506   1.931       .  S
C500        C501   1.411       .  A
C501        C502   1.411       .  A
C501       Br508   1.931       .  S
C502        C503   1.412       .  A
C502       Br507   1.931       .  S
C503        C504   1.411       .  A
C504       Br505   1.931       .  S
C509        C514   1.404       .  A
C509       C1438   1.412       .  A
C509       Br516   1.932       .  S
C510        C511   1.411       .  A
C510       C1437   1.409       .  A
C511        C512   1.412       .  A
C511       Br518   1.930       .  S
C512        C513   1.412       .  A
C512       Br517   1.931       .  S
C513       C1442   1.410       .  A
C514       C1441   1.414       .  A
C514       Br515   1.932       .  S
C519        C520   1.414       .  A
C519        C524   1.413       .  A
C519       Br526   1.933       .  S
C520       C1449   1.411       .  A
C521        C522   1.410       .  A
C521       C1448   1.414       .  A
C521       Br528   1.935       .  S
C522       C1451   1.414       .  A
C522       Br527   1.934       .  S
C523        C524   1.415       .  A
C523       C1450   1.413       .  A
C524       Br525   1.933       .  S
C529        C530   1.414       .  A
C529        C534   1.410       .  A
C529       Br536   1.933       .  S
C530        C531   1.415       .  A
C531        C532   1.409       .  A
C531       Br538   1.933       .  S
C532        C533   1.411       .  A
C532       Br537   1.933       .  S
C533        C534   1.412       .  A
C534       Br535   1.933       .  S
C539        C540   1.412       .  A
C539        C544   1.410       .  A
C539       Br546   1.932       .  S
C540        C541   1.410       .  A
C541        C542   1.407       .  A
C541       Br548   1.933       .  S
C542        C543   1.413       .  A
C542       Br547   1.933       .  S
C543        C544   1.413       .  A
C544       Br545   1.932       .  S
C549        C550   1.413       .  A
C549        C554   1.412       .  A
C549       Br556   1.932       .  S
C550       C1479   1.412       .  A
C551        C552   1.411       .  A
C551       C1478   1.418       .  A
C551       Br558   1.934   1_565  S
C552       C1481   1.414       .  A
C552       Br557   1.933   1_565  S
C553        C554   1.414       .  A
C553       C1480   1.409       .  A
C554       Br555   1.933       .  S
C559        C564   1.407       .  A
C559       C1488   1.414       .  A
C559       Br566   1.938       .  S
C560        C561   1.407       .  A
C560       C1487   1.411       .  A
C561        C562   1.406       .  A
C561       Br568   1.930       .  S
C562        C563   1.411       .  A
C562       Br567   1.925       .  S
C563       C1492   1.412       .  A
C564       C1491   1.416       .  A
C564       Br565   1.936   1_565  S
C569        C570   1.415       .  A
C569        C574   1.412       .  A
C569       Br576   1.933       .  S
C570        C571   1.412       .  A
C571        C572   1.409       .  A
C571       Br578   1.925       .  S
C572        C573   1.410   1_554  A
C572       Br577   1.926   1_554  S
C573        C574   1.413   1_556  A
C574       Br575   1.933   1_554  S
C579        C584   1.412       .  A
C579       C1508   1.415       .  A
C579       Br586   1.934       .  S
C580        C581   1.411       .  A
C580       C1507   1.412       .  A
C581        C582   1.414       .  A
C581       Br588   1.927       .  S
C582        C583   1.411   1_554  A
C582       Br587   1.926   1_554  S
C583       C1512   1.411   1_556  A
C584       C1511   1.414   1_554  A
C584       Br585   1.933   1_554  S
C589        C590   1.413       .  A
C589        C594   1.411       .  A
C589       Br596   1.932       .  S
C590        C591   1.413       .  A
C591        C592   1.410       .  A
C591       Br598   1.933       .  S
C592        C593   1.414       .  A
C592       Br597   1.933       .  S
C593        C594   1.412       .  A
C594       Br595   1.932       .  S
C599        C600   1.410       .  A
C599        C604   1.410       .  A
C599       Br606   1.930       .  S
C600        C601   1.410       .  A
C601        C602   1.406       .  A
C601       Br608   1.929       .  S
C602        C603   1.409       .  A
C602       Br607   1.930       .  S
C603        C604   1.411       .  A
C604       Br605   1.930       .  S
C609        C614   1.413       .  A
C609       C2466   1.413   1_554  A
C609       Br616   1.924   1_554  S
C610        C611   1.414   1_556  A
C610       C2465   1.413   1_456  A
C611        C612   1.413       .  A
C611       Br618   1.933   1_554  S
C612        C613   1.415       .  A
C612       Br617   1.932       .  S
C613       C2470   1.413   1_455  A
C614       C2469   1.413       .  A
C614       Br615   1.927       .  S
C619        C620   1.411       .  A
C619        C624   1.404       .  A
C619       Br626   1.931       .  S
C620       C1549   1.414       .  A
C621        C622   1.410       .  A
C621       C1548   1.413       .  A
C621       Br628   1.931       .  S
C622       C1551   1.410       .  A
C622       Br627   1.932       .  S
C623        C624   1.411       .  A
C623       C1550   1.413       .  A
C624       Br625   1.927       .  S
C629        C634   1.410       .  A
C629       C1558   1.412       .  A
C629       Br636   1.933       .  S
C630        C631   1.412       .  A
C630       C1557   1.414       .  A
C631        C632   1.410       .  A
C631       Br638   1.933       .  S
C632        C633   1.413       .  A
C632       Br637   1.933       .  S
C633       C1562   1.414       .  A
C634       C1561   1.413       .  A
C634       Br635   1.931       .  S
C639        C640   1.414   1_654  A
C639        C644   1.413       .  A
C639       Br646   1.931   1_554  S
C640       C3425   1.414   1_556  A
C641        C642   1.415       .  A
C641       C3424   1.411   1_554  A
C641       Br648   1.926   1_554  S
C642       C3427   1.413       .  A
C642       Br647   1.928       .  S
C643       C1166   1.494       .  S
C643        C644   1.413   1_455  A
C643       C3426   1.413       .  A
C644       Br645   1.932       .  S
C649        C650   1.420       .  A
C649        C654   1.425       .  A
C649       Br656   1.935       .  S
C650        C651   1.418       .  A
C651        C652   1.414       .  A
C651       Br658   1.941       .  S
C652        C653   1.425       .  A
C652       Br657   1.939       .  S
C653        C654   1.428       .  A
C654       Br655   1.935       .  S
C659        C660   1.412       .  A
C659        C664   1.409       .  A
C659       Br666   1.930       .  S
C660        C661   1.414       .  A
C661        C662   1.413       .  A
C661       Br668   1.932       .  S
C662        C663   1.413       .  A
C662       Br667   1.932       .  S
C663        C664   1.413       .  A
C664       Br665   1.933       .  S
C669        C670   1.410       .  A
C669        C674   1.410       .  A
C669       Br676   1.931       .  S
C670        C671   1.410       .  A
C671        C672   1.408       .  A
C671       Br678   1.935       .  S
C672        C673   1.412       .  A
C672       Br677   1.920       .  S
C673        C674   1.413       .  A
C674       Br675   1.931       .  S
C679        C680   1.417       .  A
C679        C684   1.419       .  A
C679       Br686   1.933       .  S
C680       C1609   1.416       .  A
C681        C682   1.421       .  A
C681       C1608   1.417       .  A
C681       Br688   1.920       .  S
C682       C1611   1.417       .  A
C682       Br687   1.932       .  S
C683        C684   1.416       .  A
C683       C1610   1.418       .  A
C684       Br685   1.932       .  S
C689        C694   1.414       .  A
C689       C2546   1.413       .  A
C689       Br696   1.931       .  S
C690        C691   1.416       .  A
C690       C2545   1.413       .  A
C691        C692   1.417       .  A
C691       Br698   1.931       .  S
C692        C693   1.413       .  A
C692       Br697   1.930       .  S
C693       C2550   1.415       .  A
C694       C2549   1.415       .  A
C694       Br695   1.932       .  S
C699        C700   1.413       .  A
C699        C704   1.409       .  A
C699       Br706   1.932       .  S
C700       C2557   1.413       .  A
C701        C702   1.413       .  A
C701       C2556   1.413       .  A
C701       Br708   1.932       .  S
C702       C2559   1.413       .  A
C702       Br707   1.932       .  S
C703        C704   1.411       .  A
C703       C2558   1.413       .  A
C704       Br705   1.931       .  S
C709        C714   1.409       .  A
C709       C2566   1.414       .  A
C709       Br716   1.934       .  S
C710        C711   1.413       .  A
C710       C2565   1.414       .  A
C711        C712   1.411       .  A
C711       Br718   1.931   1_455  S
C712        C713   1.413       .  A
C712       Br717   1.932   1_455  S
C713       C2570   1.412       .  A
C714       C2569   1.412       .  A
C714       Br715   1.934       .  S
C719        C724   1.414       .  A
C719       C2576   1.414       .  A
C719       Br726   1.932       .  S
C720       C2575   1.414       .  A
C720       C1649   1.413       .  A
C721        C722   1.413       .  A
C721       C1648   1.411   1_545  A
C721       Br728   1.929       .  S
C722       C1651   1.412   1_545  A
C722       Br727   1.929       .  S
C723       C1650   1.412       .  A
C723       C2580   1.414       .  A
C724       C2579   1.414       .  A
C724       Br725   1.932       .  S
C729        C730   1.417       .  A
C729        C734   1.412       .  A
C729       Br736   1.933       .  S
C730        C731   1.417       .  A
C731        C732   1.415       .  A
C731       Br738   1.925       .  S
C732        C733   1.412       .  A
C732       Br737   1.933       .  S
C733        C734   1.412       .  A
C734       Br735   1.933       .  S
C739        C740   1.415       .  A
C739        C744   1.406       .  A
C739       Br746   1.936       .  S
C740        C741   1.414       .  A
C741        C742   1.407       .  A
C741       Br748   1.934       .  S
C742        C743   1.411       .  A
C742       Br747   1.934       .  S
C743        C744   1.411       .  A
C744       Br745   1.935       .  S
C749        C750   1.416       .  A
C749        C754   1.411       .  A
C749       Br756   1.937       .  S
C750        C751   1.417       .  A
C751        C752   1.412       .  A
C751       Br758   1.934       .  S
C752        C753   1.416       .  A
C752       Br757   1.932       .  S
C753        C754   1.417       .  A
C754       Br755   1.936       .  S
C759        C760   1.409       .  A
C759        C764   1.414       .  A
C759       Br766   1.934       .  S
C760       C1689   1.406       .  A
C761        C762   1.416       .  A
C761       C1688   1.408   1_545  A
C761       Br768   1.926       .  S
C762       C1691   1.423   1_545  A
C762       Br767   1.931       .  S
C763        C764   1.426       .  A
C763       C1690   1.428       .  A
C764       Br765   1.936       .  S
C769        C770   1.419       .  A
C769        C774   1.416       .  A
C769       Br776   1.933       .  S
C770       C2627   1.421   1_455  A
C771        C772   1.415       .  A
C771       C2626   1.421       .  A
C771       Br778   1.933       .  S
C772       C2629   1.409       .  A
C772       Br777   1.932       .  S
C773        C774   1.413       .  A
C773       C2628   1.409   1_455  A
C774       Br775   1.933       .  S
C779        C784   1.408       .  A
C779       C2636   1.416       .  A
C779       Br786   1.936       .  S
C780        C781   1.415       .  A
C780       C2635   1.416   1_455  A
C781        C782   1.409       .  A
C781       Br788   1.935       .  S
C782       C2639   1.414       .  A
C782       Br787   1.936       .  S
C783        C784   1.414       .  A
C783       C2638   1.414       .  A
C784       Br785   1.936       .  S
C789        C794   1.415       .  A
C789       C2646   1.415       .  A
C789       Br796   1.931       .  S
C790        C791   1.414       .  A
C790       C2645   1.415       .  A
C791        C792   1.410       .  A
C791       Br798   1.934       .  S
C792       C2649   1.414       .  A
C792       Br797   1.933       .  S
C793        C794   1.414       .  A
C793       C2648   1.414       .  A
C794       Br795   1.932       .  S
C799        C804   1.416       .  A
C799       C2656   1.408       .  A
C799       Br806   1.934       .  S
C800       C2655   1.408       .  A
C800       C1729   1.404       .  A
C801        C802   1.412       .  A
C801       C1728   1.406   1_545  A
C801       Br808   1.933       .  S
C802       C1731   1.422   1_545  A
C802       Br807   1.930       .  S
C803       C1730   1.429       .  A
C803       C2660   1.429       .  A
C804       C2659   1.429       .  A
C804       Br805   1.936       .  S
C809        C810   1.411       .  A
C809        C814   1.410       .  A
C809       Br816   1.931       .  S
C810        C811   1.413       .  A
C811        C812   1.410       .  A
C811       Br818   1.933       .  S
C812        C813   1.412       .  A
C812       Br817   1.932       .  S
C813        C814   1.412       .  A
C814       Br815   1.930       .  S
C819        C820   1.411       .  A
C819        C824   1.407       .  A
C819       Br826   1.933       .  S
C820        C821   1.412       .  A
C821        C822   1.410       .  A
C821       Br828   1.931       .  S
C822        C823   1.412       .  A
C822       Br827   1.929       .  S
C823        C824   1.413       .  A
C824       Br825   1.933       .  S
C829        C834   1.411       .  A
C829       C1758   1.410       .  A
C829       Br836   1.928       .  S
C830        C831   1.413       .  A
C830       C1757   1.415       .  A
C831        C832   1.408       .  A
C831       Br838   1.929   1_565  S
C832        C833   1.410       .  A
C832       Br837   1.930   1_565  S
C833       C1762   1.414       .  A
C834       C1761   1.409       .  A
C834       Br835   1.927       .  S
C839        C844   1.406       .  A
C839       C1768   1.411       .  A
C839       Br846   1.929       .  S
C840        C841   1.410       .  A
C840       C1767   1.411       .  A
C841        C842   1.404       .  A
C841       Br848   1.926       .  S
C842        C843   1.408       .  A
C842       Br847   1.928       .  S
C843       C1772   1.413       .  A
C844       C1771   1.412       .  A
C844       Br845   1.930       .  S
C849        C850   1.415       .  A
C849        C854   1.415       .  A
C849       Br856   1.934       .  S
C850        C851   1.412       .  A
C851        C852   1.414       .  A
C851       Br858   1.932       .  S
C852        C853   1.416       .  A
C852       Br857   1.931       .  S
C853        C854   1.417       .  A
C854       Br855   1.933       .  S
C859        C860   1.411       .  A
C859        C864   1.407       .  A
C859       Br866   1.933       .  S
C860        C861   1.411       .  A
C861        C862   1.409       .  A
C861       Br868   1.931       .  S
C862        C863   1.413       .  A
C862       Br867   1.932       .  S
C863        C864   1.412       .  A
C864       Br865   1.933       .  S
C869        C870   1.414       .  A
C869        C874   1.411       .  A
C869       Br876   1.933       .  S
C870        C871   1.413       .  A
C871        C872   1.413       .  A
C871       Br878   1.931       .  S
C872        C873   1.413       .  A
C872       Br877   1.932       .  S
C873        C874   1.412       .  A
C874       Br875   1.933       .  S
C879        C880   1.407   1_545  A
C879        C884   1.420       .  A
C879       Br886   1.932       .  S
C880        C968   1.498       .  S
C880       C1809   1.409       .  A
C881        C882   1.418       .  A
C881       C1808   1.416       .  A
C881       Br888   1.932       .  S
C882       C1811   1.418       .  A
C882       Br887   1.934       .  S
C883        C884   1.431   1_565  A
C883       C1810   1.427       .  A
C884       Br885   1.934       .  S
C889        C894   1.414       .  A
C889       C2746   1.416       .  A
C889       Br896   1.933       .  S
C890        C891   1.416       .  A
C890       C2745   1.417       .  A
C891        C892   1.415       .  A
C891       Br898   1.924       .  S
C892       C2749   1.413       .  A
C892       Br897   1.933       .  S
C893        C894   1.415       .  A
C893       C2748   1.413   1_455  A
C894       Br895   1.934       .  S
C899        C900   1.410       .  A
C899        C904   1.406       .  A
C899       Br906   1.933       .  S
C900       C1869   1.473       .  S
C900       C2757   1.410       .  A
C901        C902   1.407       .  A
C901       C2756   1.410       .  A
C901       Br908   1.933       .  S
C902       C2759   1.411       .  A
C902       Br907   1.932       .  S
C903        C904   1.411       .  A
C903       C2758   1.411       .  A
C904       Br905   1.933       .  S
C909        C910   1.418       .  A
C909        C914   1.412       .  A
C909       Br916   1.935       .  S
C910       C2767   1.419       .  A
C911        C912   1.412       .  A
C911       C2766   1.419       .  A
C911       Br918   1.938       .  S
C912       C2769   1.419       .  A
C912       Br917   1.937       .  S
C913       C1870   1.500       .  S
C913        C914   1.420       .  A
C913       C2768   1.419       .  A
C914       Br915   1.938       .  S
C919        C924   1.419       .  A
C919       C2776   1.428       .  A
C919       Br926   1.934       .  S
C920       C2775   1.428       .  A
C920       C1849   1.428   1_565  A
C921        C922   1.419       .  A
C921       C1848   1.418       .  A
C921       Br928   1.932       .  S
C922       C1851   1.415       .  A
C922       Br927   1.931       .  S
C923       C1850   1.408   1_565  A
C923       C2780   1.409       .  A
C924       C2779   1.410       .  A
C924       Br925   1.933       .  S
O929       Cu937   2.050       .  S
O929        C939   1.281       .  A
O930       Cu937   2.042       .  S
O930       C1868   1.281       .  A
O931       Cu937   2.006       .  S
O931        C941   1.278       .  A
O932        C942   1.276       .  A
O933       Cu938   2.012       .  S
O933       C2798   1.277       .  A
O934       C2797   1.276       .  A
O935       Cu938   2.031       .  S
O935        C940   1.280       .  A
O936       Cu938   2.014       .  S
O936       C1867   1.278       .  A
Cu937     Cu1866   2.365   1_455  S
Cu938     Cu1865   2.365       .  S
C939       O1864   1.279       .  A
C940       O1858   1.281       .  A
C940       C1851   1.502       .  S
C941       O2790   1.276       .  A
C941       C3684   1.477       .  S
C942       O2789   1.277       .  A
C942       C3697   1.501       .  S
O943       Cu951   2.003       .  S
O943        C953   1.276       .  A
O944       Cu951   1.996       .  S
O944        C954   1.276       .  A
O945       Cu951   2.014       .  S
O945        C955   1.279       .  A
O946       Cu951   2.036       .  S
O946        C956   1.281       .  A
O947       Cu952   2.030       .  S
O947       C2812   1.280       .  A
O948       Cu952   2.044       .  S
O948       C2811   1.281       .  A
O949       Cu952   2.014       .  S
O949       C2810   1.278       .  A
O950       Cu952   2.015       .  S
O950       C2809   1.278       .  A
Cu951     Cu2808   2.365       .  S
Cu952     Cu2807   2.365       .  S
C953       O2806   1.278       .  A
C953       C1838   1.500       .  S
C954       O2805   1.278       .  A
C954       C1831   1.477       .  S
C955       O2804   1.281       .  A
C955       C3201   1.483       .  S
C956       O2803   1.280       .  A
C956       C1818   1.502       .  S
O957       Cu965   2.038       .  S
O957        C967   1.281       .  A
O958       Cu965   2.042       .  S
O958        C968   1.281   1_545  A
O959       Cu965   2.015   1_565  S
O959        C969   1.278       .  A
O960        C970   1.279       .  A
O961       Cu966   2.018       .  S
O961        C970   1.278       .  A
O962        C969   1.278       .  A
O963        C968   1.280       .  A
O964        C967   1.280       .  A
C967       C1361   1.489       .  S
C969       C1791   1.487       .  S
C970       C1798   1.487       .  S
O971       Cu979   2.022       .  S
O971        C981   1.279       .  A
O972       Cu979   2.018       .  S
O972        C982   1.279       .  A
O973       Cu979   2.031       .  S
O973        C983   1.280       .  A
O974       Cu979   2.025       .  S
O974        C984   1.280       .  A
O975       Cu980   2.028       .  S
O975        C984   1.280       .  A
O976       Cu980   2.026       .  S
O976        C983   1.280       .  A
O977       Cu980   2.009       .  S
O977        C982   1.278       .  A
O978       Cu980   2.018       .  S
O978        C981   1.279       .  A
Cu979      Cu980   2.369       .  S
C981       C1801   1.487       .  S
C982       C1788   1.485       .  S
C983       C1373   1.482       .  S
C984       C1781   1.498       .  S
O985       Cu993   2.038       .  S
O986       Cu993   2.043       .  S
O987      Cu2849   2.012   1_455  S
O988       Cu993   2.014       .  S
O989       Cu994   2.031       .  S
O989        C998   1.280       .  A
O990      Cu2850   2.018   1_455  S
O990        C997   1.278       .  A
O991       Cu994   2.030       .  S
O991        C996   1.279       .  A
O992       Cu994   2.027       .  S
O992        C995   1.280       .  A
Cu993      O2843   2.012       .  S
Cu994      O2846   2.017       .  S
C995       C3132   1.491       .  S
C996       C1848   1.506       .  S
C997       C1771   1.484       .  S
C998       C1758   1.480       .  S
O999      Cu1007   2.028       .  S
O999       C1009   1.280       .  A
O1000     Cu1007   2.023   1_655  S
O1000      C1010   1.279       .  A
O1001     Cu2863   2.015       .  S
O1001      C1011   1.278       .  A
O1002     Cu1007   2.008       .  S
O1002      C1012   1.278       .  A
O1003     Cu1008   2.013   1_455  S
O1003      C1012   1.278       .  A
O1004     Cu2864   2.014       .  S
O1004      C1011   1.278       .  A
O1005     Cu1008   2.034       .  S
O1005      C1010   1.280       .  A
O1006     Cu1008   2.031   1_455  S
O1006      C1009   1.281       .  A
Cu1007     O2857   2.015   1_455  S
Cu1007    Cu1008   2.370   1_455  S
Cu1008     O2860   2.014       .  S
C1009      C1821   1.499       .  S
C1010      C1289   1.482   1_655  S
C1011      C1741   1.482       .  S
C1012      C1748   1.482       .  S
O1013     Cu1021   2.023       .  S
O1013      C1023   1.278       .  A
O1014     Cu1021   2.018       .  S
O1014      C1024   1.278       .  A
O1015     Cu1021   2.029       .  S
O1015      C1025   1.280       .  A
O1016     Cu1021   2.018       .  S
O1016      C1026   1.279       .  A
O1017     Cu1022   2.004       .  S
O1018     Cu1022   2.000       .  S
O1019     Cu1022   2.043       .  S
O1020     Cu1022   2.048       .  S
C1023      C1811   1.508       .  S
C1024      C1305   1.488       .  S
C1025      C1761   1.479       .  S
C1026      C1768   1.485       .  S
O1027     Cu1035   2.028       .  S
O1027      C1037   1.280       .  A
O1028     Cu1035   2.025       .  S
O1028      C1038   1.280       .  A
O1029     Cu1035   2.011       .  S
O1029      C1039   1.278       .  A
O1030     Cu1035   2.013       .  S
O1030      C1040   1.278       .  A
O1031     Cu1036   2.012       .  S
O1031      C1040   1.278       .  A
O1032     Cu1036   2.014       .  S
O1032      C1039   1.278       .  A
O1033     Cu1036   2.026       .  S
O1033      C1038   1.279       .  A
O1034     Cu1036   2.024       .  S
O1034      C1037   1.280       .  A
Cu1035    Cu1036   2.371       .  S
C1037      C1778   1.495       .  S
C1038      C1317   1.479       .  S
C1039      C1751   1.484       .  S
C1040      C1738   1.482       .  S
O1041     Cu1049   2.036       .  S
O1041      C2907   1.281       .  A
O1042     Cu1049   2.037       .  S
O1042      C1980   1.281       .  A
O1043     Cu1049   2.029       .  S
O1043      C2909   1.279       .  A
O1044      C2910   1.278       .  A
O1045     Cu1050   2.005       .  S
O1045      C1054   1.277       .  A
O1046      C1053   1.280       .  A
O1047     Cu1050   2.011       .  S
O1047      C1052   1.277       .  A
O1048     Cu1050   2.005   1_545  S
Cu1049    Cu1978   2.369       .  S
Cu1050    Cu1977   2.370       .  S
C1051      O2897   1.281       .  A
C1051      C2963   1.479       .  S
C1052      O1970   1.280       .  A
C1052      C1728   1.484       .  S
C1053      O2899   1.279       .  A
C1053      C1718   1.496       .  S
C1054      O2900   1.278       .  A
C1054      C1711   1.484       .  S
O1055     Cu1063   2.019       .  S
O1055      C2921   1.279       .  A
O1056     Cu1063   2.004       .  S
O1056      C2922   1.277       .  A
O1057     Cu1063   2.025       .  S
O1057      C2923   1.279       .  A
O1058     Cu1063   2.017       .  S
O1058      C2924   1.278       .  A
O1059     Cu1064   2.036       .  S
O1059      C1068   1.281       .  A
O1060     Cu1064   2.039       .  S
O1060      C1067   1.282       .  A
O1061     Cu1064   2.008       .  S
O1061      C1066   1.277       .  A
O1062     Cu1064   2.027       .  S
O1062      C1065   1.279       .  A
Cu1063    Cu2920   2.368       .  S
Cu1064    Cu2919   2.368       .  S
C1065      O2911   1.279       .  A
C1065      C1721   1.495       .  S
C1066      O2912   1.277       .  A
C1066      C1708   1.483       .  S
C1067      O2913   1.279   1_455  A
C1067      C1701   1.496       .  S
C1068      O2914   1.278       .  A
C1068      C1122   1.481       .  S
O1069      C1079   1.277       .  A
O1070     Cu1077   2.006   1_565  S
O1070      C1080   1.278       .  A
O1071     Cu1077   2.040       .  S
O1071      C1081   1.276       .  A
O1072     Cu1077   2.027       .  S
O1072      C1082   1.279       .  A
O1073      C1082   1.282       .  A
O1074      C1081   1.284       .  A
O1075      C1080   1.276       .  A
O1076     Cu1078   2.010       .  S
O1076      C1079   1.277       .  A
C1079      C1678   1.504       .  S
C1080      C1668   1.478       .  S
C1081      C1135   1.486       .  S
C1082      C1688   1.497   1_545  S
O1083     Cu1091   2.039       .  S
O1083      C1093   1.280       .  A
O1084     Cu1091   2.023       .  S
O1084      C1094   1.279       .  A
O1085     Cu1091   2.013       .  S
O1085      C1095   1.277       .  A
O1086     Cu1091   2.004       .  S
O1086      C1096   1.277       .  A
O1087     Cu1092   1.998       .  S
O1087      C1096   1.277       .  A
O1088     Cu1092   2.009       .  S
O1088      C1095   1.277       .  A
O1089     Cu1092   2.022       .  S
O1089      C1094   1.279       .  A
O1090     Cu1092   2.003       .  S
O1090      C1093   1.277       .  A
Cu1091    Cu1092   2.365       .  S
C1093      C1151   1.477       .  S
C1094      C1658   1.492       .  S
C1095      C1681   1.506       .  S
C1096      C1671   1.477       .  S
O1097     Cu1105   2.018       .  S
O1097      C2963   1.279       .  A
O1098     Cu1105   2.024       .  S
O1098      C2036   1.279       .  A
O1099     Cu1105   2.015       .  S
O1099      C2965   1.278       .  A
O1100      C2966   1.280       .  A
O1101     Cu1106   2.014       .  S
O1101      C1110   1.278       .  A
O1102      C1109   1.278       .  A
O1103     Cu1106   2.031       .  S
O1103      C1108   1.281       .  A
O1104     Cu1106   2.028   1_545  S
Cu1105    Cu2034   2.372       .  S
Cu1106    Cu2033   2.372       .  S
C1107      O2953   1.279       .  A
C1107      C2907   1.478       .  S
C1108      O2026   1.278       .  A
C1108      C1648   1.488       .  S
C1109      O2955   1.278       .  A
C1109      C1638   1.482       .  S
C1110      O2956   1.280       .  A
C1110      C1628   1.487       .  S
O1111     Cu1119   2.031       .  S
O1111      C1121   1.280       .  A
O1112     Cu1119   2.031       .  S
O1112      C1122   1.280       .  A
O1113     Cu1119   2.019       .  S
O1113      C1123   1.279       .  A
O1114     Cu1119   2.012       .  S
O1114      C1124   1.278       .  A
O1115     Cu1120   2.012       .  S
O1115      C2980   1.278       .  A
O1116     Cu1120   2.020       .  S
O1116      C2979   1.279       .  A
O1117     Cu1120   2.023       .  S
O1117      C2978   1.280       .  A
O1118     Cu1120   2.029       .  S
O1118      C2977   1.280       .  A
Cu1119    Cu2976   2.371       .  S
Cu1120    Cu2975   2.371       .  S
C1121      O2974   1.280       .  A
C1121      C1618   1.495       .  S
C1122      O2973   1.279       .  A
C1123      O2972   1.279       .  A
C1123      C1631   1.486       .  S
C1124      O2971   1.278       .  A
C1124      C1641   1.481       .  S
O1125     Cu1133   2.013       .  S
O1125      C1135   1.273       .  A
O1126     Cu1133   2.027       .  S
O1126      C1136   1.279       .  A
O1127     Cu1133   2.027   1_565  S
O1127      C1137   1.280       .  A
O1128      C1138   1.280       .  A
O1129      C1138   1.276       .  A
O1130     Cu1134   2.006   1_565  S
O1130      C1137   1.277       .  A
O1131     Cu1134   2.065       .  S
O1131      C1136   1.285       .  A
O1132     Cu1134   2.053       .  S
O1132      C1135   1.287       .  A
Cu1133    Cu1134   2.367       .  S
C1136      C1608   1.516       .  S
C1137      C1591   1.484       .  S
C1138      C1601   1.480       .  S
O1139     Cu1147   2.009       .  S
O1139      C1149   1.277       .  A
O1140     Cu1147   2.023       .  S
O1140      C1150   1.280       .  A
O1141     Cu1147   2.043       .  S
O1141      C1151   1.281       .  A
O1142     Cu1147   2.052       .  S
O1142      C1152   1.282       .  A
O1143     Cu1148   2.001       .  S
O1143      C1152   1.274       .  A
O1144     Cu1148   2.002       .  S
O1144      C1151   1.277       .  A
O1145     Cu1148   2.017       .  S
O1145      C1150   1.278       .  A
O1146     Cu1148   2.024       .  S
O1146      C1149   1.279       .  A
Cu1147    Cu1148   2.362       .  S
C1149      C1598   1.480       .  S
C1150      C1588   1.489       .  S
C1152      C1578   1.521       .  S
O1153     Cu3017   2.009       .  S
O1153      C1163   1.278       .  A
O1154     Cu1161   2.013       .  S
O1154      C1164   1.278       .  A
O1155     Cu1161   2.028       .  S
O1155      C1165   1.279       .  A
O1156     Cu1161   2.039       .  S
O1156      C1166   1.281       .  A
O1157     Cu3018   2.021       .  S
O1158     Cu3018   2.010       .  S
O1159     Cu3018   2.018   1_455  S
O1160     Cu1162   2.011       .  S
Cu1161     O3009   2.010   1_455  S
Cu1161    Cu2090   2.372       .  S
Cu1162     O3013   2.022       .  S
Cu1162     O3014   2.010       .  S
Cu1162     O3015   2.019       .  S
Cu1162    Cu2089   2.371       .  S
C1163      C1548   1.480       .  S
C1164      C1558   1.484       .  S
C1165      C3076   1.472       .  S
O1167     Cu1175   2.021       .  S
O1167      C1177   1.279       .  A
O1168     Cu1175   2.016       .  S
O1168      C1178   1.279       .  A
O1169     Cu3031   2.017       .  S
O1169      C1179   1.279       .  A
O1170     Cu1175   2.016       .  S
O1170      C1180   1.278       .  A
O1171     Cu1176   2.008       .  S
O1171      C1180   1.278       .  A
O1172     Cu3032   2.018       .  S
O1172      C1179   1.278       .  A
O1173     Cu1176   2.041       .  S
O1173      C1178   1.281       .  A
O1174     Cu1176   2.038       .  S
O1174      C1177   1.282       .  A
Cu1175     O3025   2.017   1_455  S
Cu1175    Cu1176   2.370       .  S
Cu1176     O3028   2.018   1_455  S
C1177      C1541   1.501       .  S
C1178      C1234   1.483       .  S
C1179      C1518   1.485       .  S
C1180      C1531   1.478       .  S
O1181     Cu1189   2.018       .  S
O1182     Cu1189   2.011       .  S
O1183     Cu1189   2.008       .  S
O1184     Cu1189   2.015       .  S
O1185     Cu1190   2.020       .  S
O1185      C1194   1.279       .  A
O1186     Cu1190   2.011       .  S
O1186      C1193   1.278       .  A
O1187     Cu1190   2.034       .  S
O1187      C1192   1.280       .  A
O1188     Cu1190   2.033       .  S
O1188      C1191   1.281       .  A
C1191      C1508   1.495       .  S
C1192      C1248   1.474       .  S
C1193      C1551   1.478       .  S
C1194      C1561   1.485       .  S
O1195     Cu1203   2.033       .  S
O1195      C1205   1.281       .  A
O1196     Cu1203   2.033       .  S
O1196      C1206   1.280       .  A
O1197     Cu1203   2.014       .  S
O1197      C1207   1.278       .  A
O1198     Cu1203   2.008       .  S
O1198      C1208   1.277       .  A
O1199     Cu1204   2.022       .  S
O1199      C1208   1.279       .  A
O1200     Cu1204   2.019       .  S
O1200      C1207   1.279       .  A
O1201     Cu1204   2.004       .  S
O1201      C1206   1.277       .  A
O1202     Cu1204   2.013       .  S
O1202      C1205   1.278       .  A
Cu1203    Cu1204   2.372       .  S
C1205      C1498   1.496       .  S
C1206      C1262   1.475       .  S
C1207      C1521   1.484       .  S
C1208      C1528   1.480       .  S
O1209     Cu1217   2.017       .  S
O1210     Cu1217   2.010       .  S
O1211     Cu1217   2.014       .  S
O1212     Cu3073   1.996   1_455  S
O1213     Cu3074   2.008   1_455  S
O1213      C1222   1.276       .  A
O1214     Cu1218   2.011       .  S
O1214      C1221   1.278       .  A
O1215     Cu1218   2.030       .  S
O1215      C1220   1.280       .  A
O1216     Cu1218   2.035       .  S
O1216      C1219   1.280       .  A
Cu1217     O3068   1.995       .  S
Cu1218     O3069   2.012       .  S
C1219      C1731   1.506       .  S
C1220      C3021   1.473       .  S
C1221      C1478   1.496       .  S
C1222      C1488   1.488       .  S
O1223     Cu1231   2.053       .  S
O1223      C1233   1.284       .  A
O1224     Cu1231   2.050       .  S
O1224      C1234   1.283       .  A
O1225     Cu3087   2.005       .  S
O1225      C1235   1.276       .  A
O1226     Cu1231   2.005       .  S
O1226      C1236   1.276       .  A
O1227     Cu1232   2.015       .  S
O1227      C1236   1.279       .  A
O1228     Cu3088   2.025       .  S
O1228      C1235   1.280       .  A
O1229     Cu1232   2.008       .  S
O1229      C1234   1.277       .  A
O1230     Cu1232   2.011       .  S
O1230      C1233   1.277       .  A
Cu1231     O3081   2.005   1_455  S
Cu1231    Cu1232   2.368       .  S
Cu1232     O3084   2.024   1_455  S
C1233      C1698   1.507       .  S
C1235      C1458   1.486       .  S
C1236      C1468   1.479       .  S
O1237     Cu1245   2.049       .  S
O1237      C1247   1.283       .  A
O1238     Cu1245   2.039       .  S
O1238      C1248   1.281       .  A
O1239     Cu1245   1.999       .  S
O1239      C1249   1.276       .  A
O1240     Cu1245   1.999       .  S
O1240      C1250   1.275       .  A
O1241     Cu1246   2.021       .  S
O1242     Cu1246   2.032       .  S
O1243     Cu1246   2.010       .  S
O1244     Cu1246   2.018       .  S
C1247      C1691   1.510       .  S
C1249      C1481   1.493       .  S
C1250      C1491   1.491       .  S
O1251     Cu1259   2.006       .  S
O1251      C1261   1.277       .  A
O1252     Cu1259   2.003       .  S
O1252      C1262   1.277       .  A
O1253     Cu1259   2.018       .  S
O1253      C1263   1.279       .  A
O1254     Cu1259   2.008       .  S
O1254      C1264   1.278       .  A
O1255     Cu1260   2.009       .  S
O1255      C1264   1.277       .  A
O1256     Cu1260   2.014       .  S
O1256      C1263   1.278       .  A
O1257     Cu1260   2.033       .  S
O1257      C1262   1.280       .  A
O1258     Cu1260   2.029       .  S
O1258      C1261   1.281       .  A
Cu1259    Cu1260   2.371       .  S
C1261      C1661   1.491       .  S
C1263      C1461   1.485       .  S
C1264      C1471   1.479       .  S
O1265     Cu1273   2.045       .  S
O1266     Cu1273   2.047       .  S
O1267     Cu1273   2.013       .  S
O1268     Cu3129   2.008       .  S
O1269     Cu3130   2.019       .  S
O1269      C1278   1.278       .  A
O1270     Cu1274   2.026       .  S
O1270      C1277   1.281       .  A
O1271     Cu1274   2.030       .  S
O1271      C1276   1.280       .  A
O1272     Cu1274   2.018       .  S
O1272      C1275   1.278   1_455  A
Cu1273     O3124   2.009   1_455  S
Cu1274     O3125   2.019   1_455  S
C1275      C1568   1.493       .  S
C1276      C2851   1.492   1_455  S
C1277      C1451   1.493       .  S
C1278      C1441   1.489       .  S
O1279     Cu1287   2.034       .  S
O1279      C1289   1.280       .  A
O1280     Cu1287   2.034       .  S
O1280      C1290   1.281       .  A
O1281     Cu1287   2.012       .  S
O1281      C1291   1.278       .  A
O1282     Cu3143   2.019       .  S
O1282      C1292   1.279       .  A
O1283     Cu3144   2.013       .  S
O1283      C1292   1.278       .  A
O1284     Cu1288   2.014       .  S
O1284      C1291   1.278       .  A
O1285     Cu1288   2.023       .  S
O1285      C1290   1.280       .  A
O1286     Cu1288   2.022       .  S
O1286      C1289   1.279       .  A
Cu1287     O3138   2.019   1_455  S
Cu1287    Cu1288   2.370       .  S
Cu1288     O3139   2.014   1_455  S
C1290      C1538   1.501       .  S
C1291      C1431   1.480       .  S
C1292      C1418   1.485       .  S
O1293     Cu1301   2.012       .  S
O1293      C1303   1.278       .  A
O1294     Cu1301   2.007       .  S
O1294      C1304   1.276       .  A
O1295     Cu1301   2.025       .  S
O1295      C1305   1.280       .  A
O1296     Cu1301   2.020       .  S
O1297     Cu1302   2.038       .  S
O1297      C1306   1.282       .  A
O1298     Cu1302   2.044       .  S
O1299     Cu1302   2.009       .  S
O1300     Cu1302   2.014       .  S
C1303      C1448   1.491       .  S
C1304      C1438   1.489       .  S
C1306      C1511   1.493       .  S
O1307     Cu1315   2.030       .  S
O1307      C1317   1.280       .  A
O1308     Cu1315   2.030       .  S
O1308      C1318   1.280       .  A
O1309     Cu1315   2.014       .  S
O1309      C1319   1.278       .  A
O1310     Cu1315   2.001       .  S
O1310      C1320   1.277       .  A
O1311     Cu1316   2.021       .  S
O1311      C1320   1.279       .  A
O1312     Cu1316   2.024       .  S
O1312      C1319   1.280       .  A
O1313     Cu1316   2.018       .  S
O1313      C1318   1.279       .  A
O1314     Cu1316   2.019       .  S
O1314      C1317   1.278       .  A
Cu1315    Cu1316   2.371       .  S
C1318      C1501   1.496       .  S
C1319      C1421   1.487       .  S
C1320      C1428   1.479       .  S
O1321     Cu1329   2.054       .  S
O1321      C1331   1.283       .  A
O1322     Cu1329   2.044       .  S
O1323     Cu1329   2.003       .  S
O1323      C1333   1.277       .  A
O1324      C1334   1.277       .  A
O1325     Cu1330   2.025       .  S
O1325      C3190   1.280       .  A
O1326      C3189   1.280       .  A
O1327     Cu1330   2.011       .  S
O1327      C3188   1.277       .  A
O1328     Cu1330   2.009       .  S
O1328      C2259   1.277       .  A
Cu1329    Cu2258   2.370       .  S
Cu1330    Cu2257   2.370       .  S
C1331      O2256   1.277       .  A
C1332      O3183   1.277       .  A
C1332      C1651   1.490       .  S
C1333      O3182   1.280       .  A
C1333      C1411   1.486       .  S
C1334      O3181   1.280       .  A
C1334      C1398   1.486       .  S
O1335     Cu1343   2.050       .  S
O1335      C1345   1.282       .  A
O1336     Cu1343   2.044       .  S
O1336      C1346   1.282       .  A
O1337     Cu1343   2.011       .  S
O1337      C1347   1.277       .  A
O1338     Cu1343   2.012       .  S
O1338      C1348   1.278       .  A
O1339     Cu1344   2.021       .  S
O1339      C3204   1.279       .  A
O1340     Cu1344   2.017       .  S
O1340      C3203   1.279       .  A
O1341     Cu1344   2.011       .  S
O1341      C3202   1.277       .  A
O1342     Cu1344   2.009       .  S
O1342      C3201   1.277       .  A
Cu1343    Cu3200   2.370       .  S
Cu1344    Cu3199   2.370       .  S
C1345      O3198   1.277       .  A
C1345      C2811   1.483       .  S
C1346      O3197   1.277       .  A
C1346      C1621   1.493       .  S
C1347      O3196   1.279       .  A
C1347      C1401   1.483       .  S
C1348      O3195   1.279       .  A
C1348      C1408   1.488       .  S
O1349      C1359   1.277       .  A
O1350     Cu1357   2.006   1_565  S
O1350      C1360   1.277       .  A
O1351     Cu1357   2.041       .  S
O1351      C1361   1.281       .  A
O1352     Cu1357   2.046       .  S
O1352      C1362   1.282       .  A
O1353     Cu1358   2.043       .  S
O1354      C1361   1.280       .  A
O1355      C1360   1.279       .  A
O1356     Cu1358   2.020       .  S
O1356      C1359   1.279       .  A
C1359      C1391   1.483       .  S
C1360      C1378   1.481       .  S
C1362      C1611   1.512       .  S
O1363     Cu1371   2.018       .  S
O1363      C1373   1.278       .  A
O1364     Cu1371   2.018       .  S
O1364      C1374   1.278       .  A
O1365     Cu1371   2.011       .  S
O1365      C1375   1.277       .  A
O1366     Cu1371   2.021       .  S
O1366      C1376   1.279       .  A
O1367     Cu1372   2.013       .  S
O1367      C1376   1.278       .  A
O1368     Cu1372   2.022       .  S
O1368      C1375   1.279       .  A
O1369     Cu1372   2.043       .  S
O1369      C1374   1.280       .  A
O1370     Cu1372   2.038       .  S
O1370      C1373   1.281       .  A
Cu1371    Cu1372   2.363       .  S
C1374      C1581   1.522       .  S
C1375      C1381   1.484       .  S
C1376      C1388   1.485       .  S
C1377      C1378   1.411       .  A
C1377      C1382   1.409       .  A
C1377     Br1384   1.933       .  S
C1378      C1379   1.411       .  A
C1379      C1380   1.411       .  A
C1379     Br1386   1.932       .  S
C1380      C1381   1.414       .  A
C1380     Br1385   1.932       .  S
C1381      C1382   1.411       .  A
C1382     Br1383   1.930       .  S
C1387      C1388   1.412       .  A
C1387      C1392   1.410       .  A
C1387     Br1394   1.927       .  S
C1388      C1389   1.413       .  A
C1389      C1390   1.410       .  A
C1389     Br1396   1.933       .  S
C1390      C1391   1.413       .  A
C1390     Br1395   1.932       .  S
C1391      C1392   1.411       .  A
C1392     Br1393   1.933       .  S
C1397      C1398   1.412       .  A
C1397      C1402   1.410       .  A
C1397     Br1404   1.931   1_455  S
C1398      C3255   1.414       .  A
C1399      C3254   1.414       .  A
C1399      C1400   1.410       .  A
C1399     Br1406   1.933       .  S
C1400      C3257   1.412       .  A
C1400     Br1405   1.933       .  S
C1401      C3256   1.412       .  A
C1401      C1402   1.411       .  A
C1402     Br1403   1.932       .  S
C1407      C3264   1.413       .  A
C1407      C1412   1.410       .  A
C1407     Br1414   1.931       .  S
C1408      C3263   1.414       .  A
C1408      C1409   1.413       .  A
C1409      C1410   1.411       .  A
C1409     Br1416   1.932       .  S
C1410      C1411   1.413       .  A
C1410     Br1415   1.933       .  S
C1411      C3268   1.414       .  A
C1412      C3267   1.413       .  A
C1412     Br1413   1.933       .  S
C1417      C1418   1.412       .  A
C1417      C1422   1.412       .  A
C1417     Br1424   1.933       .  S
C1418      C1419   1.412       .  A
C1419      C1420   1.410       .  A
C1419     Br1426   1.932       .  S
C1420      C1421   1.414       .  A
C1420     Br1425   1.932       .  S
C1421      C1422   1.413       .  A
C1422     Br1423   1.932       .  S
C1427      C1428   1.411       .  A
C1427      C1432   1.406       .  A
C1427     Br1434   1.932       .  S
C1428      C1429   1.412       .  A
C1429      C1430   1.411       .  A
C1429     Br1436   1.931       .  S
C1430      C1431   1.412       .  A
C1430     Br1435   1.931       .  S
C1431      C1432   1.411       .  A
C1432     Br1433   1.932       .  S
C1437      C1442   1.406       .  A
C1437     Br1444   1.929       .  S
C1438      C1439   1.417       .  A
C1439      C1440   1.414       .  A
C1439     Br1446   1.934       .  S
C1440      C1441   1.415       .  A
C1440     Br1445   1.934       .  S
C1442     Br1443   1.928       .  S
C1447      C1448   1.415       .  A
C1447      C1452   1.412       .  A
C1447     Br1454   1.932       .  S
C1449      C1450   1.409       .  A
C1449     Br1456   1.933       .  S
C1450     Br1455   1.933       .  S
C1451      C1452   1.416       .  A
C1452     Br1453   1.930       .  S
C1457      C1458   1.413       .  A
C1457      C1462   1.411       .  A
C1457     Br1464   1.932       .  S
C1458      C1459   1.414       .  A
C1459      C1460   1.410       .  A
C1459     Br1466   1.933       .  S
C1460      C1461   1.412       .  A
C1460     Br1465   1.932       .  S
C1461      C1462   1.412       .  A
C1462     Br1463   1.932       .  S
C1467      C1468   1.412       .  A
C1467      C1472   1.409       .  A
C1467     Br1474   1.931       .  S
C1468      C1469   1.411       .  A
C1469      C1470   1.407       .  A
C1469     Br1476   1.933       .  S
C1470      C1471   1.412       .  A
C1470     Br1475   1.933       .  S
C1471      C1472   1.412       .  A
C1472     Br1473   1.931       .  S
C1477      C1478   1.418       .  A
C1477      C1482   1.410       .  A
C1477     Br1484   1.939       .  S
C1479      C1480   1.409       .  A
C1479     Br1486   1.929       .  S
C1480     Br1485   1.929       .  S
C1481      C1482   1.417       .  A
C1482     Br1483   1.939       .  S
C1487      C1492   1.410       .  A
C1487     Br1494   1.932       .  S
C1488      C1489   1.415       .  A
C1489      C1490   1.410       .  A
C1489     Br1496   1.935       .  S
C1490      C1491   1.419       .  A
C1490     Br1495   1.934       .  S
C1492     Br1493   1.930       .  S
C1497      C1498   1.416       .  A
C1497      C1502   1.413       .  A
C1497     Br1504   1.934       .  S
C1498      C1499   1.414       .  A
C1499      C1500   1.413       .  A
C1499     Br1506   1.927       .  S
C1500      C1501   1.414   1_554  A
C1500     Br1505   1.928   1_554  S
C1501      C1502   1.415   1_556  A
C1502     Br1503   1.934   1_554  S
C1507      C1512   1.412       .  A
C1507     Br1514   1.930       .  S
C1508      C1509   1.414       .  A
C1509      C1510   1.414       .  A
C1509     Br1516   1.926       .  S
C1510      C1511   1.413   1_554  A
C1510     Br1515   1.930   1_554  S
C1512     Br1513   1.929   1_554  S
C1517      C1518   1.412       .  A
C1517      C1522   1.410       .  A
C1517     Br1524   1.931       .  S
C1518      C1519   1.413       .  A
C1519      C1520   1.411       .  A
C1519     Br1526   1.932       .  S
C1520      C1521   1.413       .  A
C1520     Br1525   1.932       .  S
C1521      C1522   1.412       .  A
C1522     Br1523   1.932       .  S
C1527      C1528   1.411       .  A
C1527      C1532   1.412       .  A
C1527     Br1534   1.929       .  S
C1528      C1529   1.410       .  A
C1529      C1530   1.406       .  A
C1529     Br1536   1.927       .  S
C1530      C1531   1.409       .  A
C1530     Br1535   1.931       .  S
C1531      C1532   1.412       .  A
C1532     Br1533   1.930       .  S
C1537      C3394   1.415   1_554  A
C1537      C1542   1.415       .  A
C1537     Br1544   1.927   1_554  S
C1538      C3393   1.415   1_456  A
C1538      C1539   1.414   1_556  A
C1539      C1540   1.415       .  A
C1539     Br1546   1.934   1_554  S
C1540      C1541   1.417       .  A
C1540     Br1545   1.933       .  S
C1541      C3398   1.415   1_455  A
C1542      C3397   1.415       .  A
C1542     Br1543   1.929       .  S
C1547      C1548   1.410       .  A
C1547      C1552   1.406       .  A
C1547     Br1554   1.929       .  S
C1549      C1550   1.410       .  A
C1549     Br1556   1.933       .  S
C1550     Br1555   1.933       .  S
C1551      C1552   1.409       .  A
C1552     Br1553   1.926       .  S
C1557      C1562   1.410       .  A
C1557     Br1564   1.934       .  S
C1558      C1559   1.412       .  A
C1559      C1560   1.411       .  A
C1559     Br1566   1.932       .  S
C1560      C1561   1.413       .  A
C1560     Br1565   1.932       .  S
C1562     Br1563   1.933       .  S
C1567      C1568   1.413   1_554  A
C1567      C1572   1.414       .  A
C1567     Br1574   1.931   1_554  S
C1568      C2497   1.411   1_656  A
C1569      C2496   1.414   1_554  A
C1569      C1570   1.416       .  A
C1569     Br1576   1.929   1_554  S
C1570      C2499   1.413       .  A
C1570     Br1575   1.928       .  S
C1571      C2498   1.413   1_655  A
C1571      C1572   1.414       .  A
C1572     Br1573   1.931       .  S
C1577      C1578   1.424       .  A
C1577      C1582   1.423       .  A
C1577     Br1584   1.939       .  S
C1578      C1579   1.427       .  A
C1579      C1580   1.416       .  A
C1579     Br1586   1.947       .  S
C1580      C1581   1.424       .  A
C1580     Br1585   1.944       .  S
C1581      C1582   1.426       .  A
C1582     Br1583   1.938       .  S
C1587      C1588   1.413       .  A
C1587      C1592   1.409       .  A
C1587     Br1594   1.930       .  S
C1588      C1589   1.415       .  A
C1589      C1590   1.413       .  A
C1589     Br1596   1.932       .  S
C1590      C1591   1.412       .  A
C1590     Br1595   1.932       .  S
C1591      C1592   1.411       .  A
C1592     Br1593   1.933       .  S
C1597      C1598   1.410       .  A
C1597      C1602   1.410       .  A
C1597     Br1604   1.931       .  S
C1598      C1599   1.410       .  A
C1599      C1600   1.409       .  A
C1599     Br1606   1.925       .  S
C1600      C1601   1.408       .  A
C1600     Br1605   1.929       .  S
C1601      C1602   1.412       .  A
C1602     Br1603   1.930       .  S
C1607      C1608   1.419   1_565  A
C1607      C1612   1.419       .  A
C1607     Br1614   1.934       .  S
C1609      C1610   1.421       .  A
C1609     Br1616   1.929       .  S
C1610     Br1615   1.930       .  S
C1611      C1612   1.418   1_545  A
C1612     Br1613   1.933       .  S
C1617      C3474   1.413       .  A
C1617      C1622   1.413       .  A
C1617     Br1624   1.932       .  S
C1618      C3473   1.413       .  A
C1618      C1619   1.415       .  A
C1619      C1620   1.415       .  A
C1619     Br1626   1.931       .  S
C1620      C1621   1.412       .  A
C1620     Br1625   1.931       .  S
C1621      C3478   1.415       .  A
C1622      C3477   1.415       .  A
C1622     Br1623   1.933       .  S
C1627      C1628   1.413       .  A
C1627      C1632   1.410       .  A
C1627     Br1634   1.931       .  S
C1628      C3485   1.413       .  A
C1629      C3484   1.413       .  A
C1629      C1630   1.413       .  A
C1629     Br1636   1.932       .  S
C1630      C3487   1.413       .  A
C1630     Br1635   1.932       .  S
C1631      C3486   1.413       .  A
C1631      C1632   1.411       .  A
C1632     Br1633   1.931       .  S
C1637      C3494   1.413       .  A
C1637      C1642   1.409       .  A
C1637     Br1644   1.933       .  S
C1638      C3493   1.413       .  A
C1638      C1639   1.412       .  A
C1639      C1640   1.410       .  A
C1639     Br1646   1.932       .  S
C1640      C1641   1.412       .  A
C1640     Br1645   1.932       .  S
C1641      C3498   1.412       .  A
C1642      C3497   1.412       .  A
C1642     Br1643   1.933       .  S
C1647      C3504   1.412       .  A
C1647      C1652   1.413       .  A
C1647     Br1654   1.931       .  S
C1648      C3503   1.412       .  A
C1649      C1650   1.414       .  A
C1649     Br1656   1.930       .  S
C1650     Br1655   1.930       .  S
C1651      C3508   1.413       .  A
C1652      C3507   1.413       .  A
C1652     Br1653   1.931       .  S
C1657      C1658   1.415       .  A
C1657      C1662   1.412       .  A
C1657     Br1664   1.933       .  S
C1658      C1659   1.412       .  A
C1659      C1660   1.411       .  A
C1659     Br1666   1.928       .  S
C1660      C1661   1.414       .  A
C1660     Br1665   1.933       .  S
C1661      C1662   1.415       .  A
C1662     Br1663   1.934       .  S
C1667      C1668   1.414       .  A
C1667      C1672   1.405       .  A
C1667     Br1674   1.937       .  S
C1668      C1669   1.412       .  A
C1669      C1670   1.408       .  A
C1669     Br1676   1.934       .  S
C1670      C1671   1.413       .  A
C1670     Br1675   1.934       .  S
C1671      C1672   1.412       .  A
C1672     Br1673   1.936       .  S
C1677      C1678   1.421       .  A
C1677      C1682   1.414       .  A
C1677     Br1684   1.941       .  S
C1678      C1679   1.420       .  A
C1679      C1680   1.412       .  A
C1679     Br1686   1.941       .  S
C1680      C1681   1.422       .  A
C1680     Br1685   1.940       .  S
C1681      C1682   1.423       .  A
C1682     Br1683   1.942       .  S
C1687      C1688   1.413       .  A
C1687      C1692   1.416       .  A
C1687     Br1694   1.933       .  S
C1689      C1690   1.416       .  A
C1689     Br1696   1.929       .  S
C1690     Br1695   1.936       .  S
C1691      C1692   1.420       .  A
C1692     Br1693   1.930       .  S
C1697      C1698   1.419       .  A
C1697      C1702   1.417       .  A
C1697     Br1704   1.931       .  S
C1698      C3555   1.421   1_455  A
C1699      C3554   1.422       .  A
C1699      C1700   1.415       .  A
C1699     Br1706   1.933       .  S
C1700      C3557   1.409       .  A
C1700     Br1705   1.932       .  S
C1701      C3556   1.410       .  A
C1701      C1702   1.414       .  A
C1702     Br1703   1.932       .  S
C1707      C3564   1.414       .  A
C1707      C1712   1.407       .  A
C1707     Br1714   1.936       .  S
C1708      C3563   1.414       .  A
C1708      C1709   1.415       .  A
C1709      C1710   1.409       .  A
C1709     Br1716   1.935       .  S
C1710      C3567   1.414       .  A
C1710     Br1715   1.935       .  S
C1711      C3566   1.414       .  A
C1711      C1712   1.414       .  A
C1712     Br1713   1.936       .  S
C1717      C3574   1.417       .  A
C1717      C1722   1.417       .  A
C1717     Br1724   1.932       .  S
C1718      C3573   1.417       .  A
C1718      C1719   1.415       .  A
C1719      C1720   1.410       .  A
C1719     Br1726   1.936       .  S
C1720      C3577   1.415       .  A
C1720     Br1725   1.935       .  S
C1721      C3576   1.415       .  A
C1721      C1722   1.416       .  A
C1722     Br1723   1.932       .  S
C1727      C3584   1.409       .  A
C1727      C1732   1.414       .  A
C1727     Br1734   1.934       .  S
C1728      C3583   1.409       .  A
C1729      C1730   1.414       .  A
C1729     Br1736   1.934       .  S
C1730     Br1735   1.935       .  S
C1731      C3588   1.422       .  A
C1732      C3587   1.422       .  A
C1732     Br1733   1.930       .  S
C1737      C1738   1.412       .  A
C1737      C1742   1.410       .  A
C1737     Br1744   1.932       .  S
C1738      C1739   1.413       .  A
C1739      C1740   1.409       .  A
C1739     Br1746   1.932       .  S
C1740      C1741   1.412       .  A
C1740     Br1745   1.932       .  S
C1741      C1742   1.412       .  A
C1742     Br1743   1.932       .  S
C1747      C1748   1.412       .  A
C1747      C1752   1.408       .  A
C1747     Br1754   1.934       .  S
C1748      C1749   1.413       .  A
C1749      C1750   1.411       .  A
C1749     Br1756   1.933       .  S
C1750      C1751   1.413       .  A
C1750     Br1755   1.932       .  S
C1751      C1752   1.413       .  A
C1752     Br1753   1.934       .  S
C1757      C1762   1.411       .  A
C1757     Br1764   1.934       .  S
C1758      C1759   1.409       .  A
C1759      C1760   1.409       .  A
C1759     Br1766   1.926       .  S
C1760      C1761   1.408       .  A
C1760     Br1765   1.927       .  S
C1762     Br1763   1.934       .  S
C1767      C1772   1.410       .  A
C1767     Br1774   1.931       .  S
C1768      C1769   1.414       .  A
C1769      C1770   1.412       .  A
C1769     Br1776   1.932       .  S
C1770      C1771   1.413       .  A
C1770     Br1775   1.932       .  S
C1772     Br1773   1.932       .  S
C1777      C1778   1.414       .  A
C1777      C1782   1.413       .  A
C1777     Br1784   1.934       .  S
C1778      C1779   1.414       .  A
C1779      C1780   1.415       .  A
C1779     Br1786   1.932       .  S
C1780      C1781   1.416       .  A
C1780     Br1785   1.931       .  S
C1781      C1782   1.416       .  A
C1782     Br1783   1.934       .  S
C1787      C1788   1.413       .  A
C1787      C1792   1.410       .  A
C1787     Br1794   1.935       .  S
C1788      C1789   1.412       .  A
C1789      C1790   1.410       .  A
C1789     Br1796   1.933       .  S
C1790      C1791   1.415       .  A
C1790     Br1795   1.934       .  S
C1791      C1792   1.415       .  A
C1792     Br1793   1.934       .  S
C1797      C1798   1.413       .  A
C1797      C1802   1.411       .  A
C1797     Br1804   1.932       .  S
C1798      C1799   1.412       .  A
C1799      C1800   1.413       .  A
C1799     Br1806   1.931       .  S
C1800      C1801   1.413       .  A
C1800     Br1805   1.932       .  S
C1801      C1802   1.412       .  A
C1802     Br1803   1.932       .  S
C1807      C1808   1.413       .  A
C1807      C1812   1.418       .  A
C1807     Br1814   1.931       .  S
C1809      C1810   1.417       .  A
C1809     Br1816   1.932       .  S
C1810     Br1815   1.935       .  S
C1811      C1812   1.419       .  A
C1812     Br1813   1.932       .  S
C1817      C3674   1.416       .  A
C1817      C1822   1.414       .  A
C1817     Br1824   1.933       .  S
C1818      C3673   1.416       .  A
C1818      C1819   1.415       .  A
C1819      C1820   1.416       .  A
C1819     Br1826   1.927       .  S
C1820      C3677   1.415       .  A
C1820     Br1825   1.933       .  S
C1821      C3676   1.415   1_455  A
C1821      C1822   1.416       .  A
C1822     Br1823   1.934       .  S
C1827      C1828   1.412       .  A
C1827      C1832   1.405       .  A
C1827     Br1834   1.935       .  S
C1828      C2797   1.477       .  S
C1828      C3685   1.413       .  A
C1829      C3684   1.413       .  A
C1829      C1830   1.408       .  A
C1829     Br1836   1.934       .  S
C1830      C3687   1.412       .  A
C1830     Br1835   1.933       .  S
C1831      C3686   1.412       .  A
C1831      C1832   1.413       .  A
C1832     Br1833   1.935       .  S
C1837      C1838   1.419       .  A
C1837      C1842   1.412       .  A
C1837     Br1844   1.938       .  S
C1838      C3695   1.419       .  A
C1839      C3694   1.418       .  A
C1839      C1840   1.412       .  A
C1839     Br1846   1.939       .  S
C1840      C3697   1.421       .  A
C1840     Br1845   1.939       .  S
C1841      C2798   1.501       .  S
C1841      C3696   1.421       .  A
C1841      C1842   1.420       .  A
C1842     Br1843   1.939       .  S
C1847      C3704   1.417       .  A
C1847      C1852   1.415       .  A
C1847     Br1854   1.934       .  S
C1848      C3703   1.418       .  A
C1849      C1850   1.419       .  A
C1849     Br1856   1.933       .  S
C1850     Br1855   1.928       .  S
C1851      C3708   1.416       .  A
C1852      C3707   1.416       .  A
C1852     Br1853   1.935       .  S
O1857     Cu1865   2.051       .  S
O1857      C1867   1.282       .  A
O1858     Cu1865   2.036       .  S
O1859     Cu1865   2.003       .  S
O1859      C1869   1.277       .  A
O1860     Cu2793   2.020   1_545  S
O1860      C1870   1.279       .  A
O1861     Cu1866   2.006   1_445  S
O1862     Cu2794   2.003       .  S
O1863     Cu1866   2.043       .  S
O1863      C1868   1.281   1_655  A
O1864     Cu1866   2.017   1_455  S
Cu1865     O2788   2.008       .  S
Cu1866     O2790   1.998   1_655  S
C1867      C3187   1.485       .  S
C1868      C2779   1.502       .  S
O1871     Cu1879   2.015   1_455  S
O1871      C1881   1.278       .  A
O1872     Cu1879   2.006   1_455  S
O1872      C1882   1.277       .  A
O1873     Cu1879   2.020   1_455  S
O1873      C1883   1.279       .  A
O1874     Cu1879   2.034       .  S
O1874      C1884   1.280   1_655  A
O1875     Cu1880   2.035       .  S
O1876     Cu1880   2.050       .  S
O1877     Cu1880   2.004       .  S
O1878     Cu1880   2.008       .  S
C1881      C2766   1.499       .  S
C1882      C2759   1.475       .  S
C1884      C2746   1.502       .  S
O1885     Cu1893   2.037       .  S
O1885      C1895   1.281       .  A
O1886     Cu1893   2.037       .  S
O1886      C1896   1.281       .  A
O1887     Cu1893   2.012       .  S
O1887      C1897   1.278       .  A
O1888     Cu2821   2.020       .  S
O1888      C1898   1.279       .  A
O1889     Cu1894   2.022       .  S
O1889      C1898   1.279       .  A
O1890     Cu2822   2.006       .  S
O1890      C1897   1.277       .  A
O1891     Cu2822   2.044       .  S
O1891      C1896   1.282       .  A
O1892     Cu2822   2.046       .  S
O1892      C1895   1.282       .  A
Cu1893     O2816   2.023       .  S
Cu1893    Cu2822   2.369       .  S
Cu1894     O2818   2.011   1_545  S
Cu1894     O2819   2.035       .  S
Cu1894     O2820   2.035       .  S
Cu1894    Cu2821   2.369       .  S
C1895      C2289   1.493       .  S
C1896      C3664   1.506       .  S
C1897      C2719   1.479       .  S
C1898      C2726   1.489       .  S
O1899     Cu1907   2.019       .  S
O1899      C1909   1.279       .  A
O1900     Cu1907   2.014       .  S
O1900      C1910   1.278       .  A
O1901     Cu1907   2.036       .  S
O1901      C1911   1.281       .  A
O1902     Cu1907   2.034       .  S
O1902      C1912   1.281       .  A
O1903     Cu1908   2.021       .  S
O1903      C1912   1.279       .  A
O1904     Cu1908   2.024       .  S
O1904      C1911   1.279       .  A
O1905     Cu1908   2.006       .  S
O1905      C1910   1.277       .  A
O1906     Cu1908   2.017       .  S
O1906      C1909   1.279       .  A
Cu1907    Cu1908   2.370       .  S
C1909      C2729   1.487       .  S
C1910      C2716   1.478       .  S
C1911      C2301   1.483       .  S
C1912      C2709   1.498       .  S
O1913     Cu1921   2.054       .  S
O1913      C2851   1.283       .  A
O1914     Cu1921   2.038       .  S
O1914      C2852   1.282       .  A
O1915      C2853   1.277       .  A
O1916     Cu1921   2.010       .  S
O1916      C2854   1.276       .  A
O1917     Cu1922   2.017       .  S
O1917      C1926   1.279       .  A
O1918      C1925   1.276       .  A
O1919     Cu1922   2.038   1_455  S
O1919      C1924   1.280       .  A
O1920     Cu1922   2.020       .  S
O1920      C1923   1.282       .  A
Cu1921    Cu2850   2.368       .  S
Cu1922    Cu2849   2.364       .  S
C1923      O2841   1.278       .  A
C1924      O2842   1.281   1_455  A
C1924      C2776   1.525       .  S
C1925      O2843   1.278       .  A
C1925      C2699   1.477       .  S
C1926      O2844   1.278       .  A
C1926      C2686   1.488       .  S
O1927     Cu1935   2.027       .  S
O1927      C1937   1.280       .  A
O1928     Cu1935   2.022       .  S
O1928      C1938   1.280       .  A
O1929      C1939   1.279       .  A
O1930     Cu1935   2.007       .  S
O1930      C1940   1.277       .  A
O1931     Cu1936   2.012       .  S
O1931      C1940   1.278       .  A
O1932      C1939   1.278       .  A
O1933     Cu1936   2.029       .  S
O1933      C1938   1.279       .  A
O1934     Cu1936   2.027       .  S
O1934      C1937   1.280       .  A
Cu1935    Cu1936   2.371       .  S
C1937      C2749   1.497       .  S
C1938      C2217   1.480       .  S
C1939      C2669   1.484       .  S
C1940      C2676   1.480       .  S
O1941     Cu1949   2.027       .  S
O1941      C1951   1.278       .  A
O1942     Cu1949   2.011       .  S
O1942      C1952   1.278       .  A
O1943     Cu1949   2.025       .  S
O1943      C1953   1.280       .  A
O1944     Cu1949   2.017       .  S
O1944      C1954   1.278       .  A
O1945     Cu1950   2.003       .  S
O1945      C2882   1.277       .  A
O1946     Cu1950   2.010       .  S
O1946      C2881   1.276       .  A
O1947     Cu1950   2.056       .  S
O1947      C2880   1.283       .  A
O1948     Cu1950   2.047       .  S
O1948      C2879   1.283       .  A
Cu1949    Cu2878   2.365       .  S
Cu1950    Cu2877   2.368       .  S
C1951      O2876   1.282       .  A
C1951      C2739   1.523       .  S
C1952      O2875   1.281       .  A
C1952      C2233   1.480       .  S
C1953      O2874   1.276       .  A
C1953      C2689   1.485       .  S
C1954      O2873   1.277       .  A
C1954      C2696   1.479       .  S
O1955     Cu1963   2.026       .  S
O1955      C1965   1.280       .  A
O1956     Cu1963   2.020       .  S
O1956      C1966   1.279       .  A
O1957     Cu1963   2.006       .  S
O1957      C1967   1.277       .  A
O1958     Cu1963   2.011       .  S
O1958      C1968   1.277       .  A
O1959     Cu1964   2.019       .  S
O1959      C1968   1.279       .  A
O1960     Cu1964   2.019       .  S
O1960      C1967   1.279       .  A
O1961     Cu1964   2.022       .  S
O1961      C1966   1.278       .  A
O1962     Cu1964   2.023       .  S
O1962      C1965   1.279       .  A
Cu1963    Cu1964   2.372       .  S
C1965      C2706   1.494       .  S
C1966      C2245   1.476       .  S
C1967      C2679   1.482       .  S
C1968      C2666   1.482       .  S
O1969     Cu1977   2.029   1_545  S
O1970     Cu1977   2.026       .  S
O1971     Cu1977   2.025   1_545  S
O1972     Cu2905   2.006       .  S
O1973     Cu1978   2.007       .  S
O1973      C1982   1.277       .  A
O1974     Cu2906   2.016   1_445  S
O1974      C1981   1.279       .  A
O1975     Cu1978   2.013   1_655  S
O1975      C1980   1.277   1_655  A
O1976     Cu1978   2.009       .  S
O1976      C2907   1.277       .  A
Cu1977     O2900   2.008       .  S
Cu1978     O2902   2.018       .  S
C1979      O2904   1.277       .  A
C1980      C2656   1.488       .  S
C1981      C2646   1.492       .  S
C1982      C2639   1.484       .  S
O1983     Cu1991   2.017       .  S
O1984     Cu1991   2.004       .  S
O1985     Cu1991   2.030       .  S
O1986     Cu1991   2.023   1_455  S
O1987     Cu1992   2.028       .  S
O1987      C1996   1.280       .  A
O1988     Cu1992   2.026       .  S
O1988      C1995   1.279       .  A
O1989     Cu1992   2.010       .  S
O1989      C1994   1.278       .  A
O1990     Cu1992   2.024       .  S
O1990      C1993   1.279       .  A
C1993      C2649   1.490       .  S
C1994      C2636   1.485       .  S
C1995      C2629   1.493       .  S
C1996      C2050   1.480       .  S
O1997     Cu2933   2.018       .  S
O1997      C2007   1.279       .  A
O1998     Cu2005   2.003       .  S
O1998      C2008   1.277       .  A
O1999     Cu2005   2.047       .  S
O1999      C2009   1.281       .  A
O2000     Cu2005   2.024       .  S
O2000      C2010   1.279       .  A
O2001     Cu2934   2.033       .  S
O2001      C2010   1.280       .  A
O2002     Cu2934   2.019       .  S
O2002      C2009   1.279       .  A
O2003     Cu2934   2.002       .  S
O2003      C2008   1.277       .  A
O2004     Cu2006   2.005       .  S
O2004      C2007   1.276       .  A
Cu2005     O2925   2.014       .  S
Cu2005    Cu2934   2.365       .  S
Cu2006     O2929   2.041       .  S
Cu2006     O2930   2.022       .  S
Cu2006     O2931   1.997   1_545  S
Cu2006    Cu2933   2.367       .  S
C2007      C2606   1.495       .  S
C2008      C2596   1.480       .  S
C2009      C2063   1.487       .  S
C2010      C2616   1.491       .  S
O2011     Cu2019   2.037       .  S
O2011      C2021   1.280       .  A
O2012     Cu2019   2.024       .  S
O2012      C2022   1.280       .  A
O2013     Cu2019   2.011       .  S
O2013      C2023   1.278       .  A
O2014     Cu2019   2.003       .  S
O2014      C2024   1.277       .  A
O2015     Cu2020   2.002       .  S
O2015      C2024   1.277       .  A
O2016     Cu2020   2.016       .  S
O2016      C2023   1.278       .  A
O2017     Cu2020   2.033       .  S
O2017      C2022   1.280       .  A
O2018     Cu2020   2.016       .  S
O2018      C2021   1.279       .  A
Cu2019    Cu2020   2.367       .  S
C2021      C2079   1.481       .  S
C2022      C2586   1.500       .  S
C2023      C2609   1.496       .  S
C2024      C2599   1.476       .  S
O2025     Cu2033   2.008       .  S
O2026     Cu2033   2.019       .  S
O2027     Cu2033   2.021   1_545  S
O2028     Cu2961   2.022       .  S
O2029     Cu2034   2.015       .  S
O2029      C2038   1.278       .  A
O2030     Cu2962   2.007   1_545  S
O2030      C2037   1.277       .  A
O2031     Cu2034   2.031       .  S
O2031      C2036   1.280       .  A
O2032     Cu2034   2.031       .  S
O2032      C2963   1.279       .  A
Cu2033     O2956   2.026       .  S
Cu2034     O2958   2.012       .  S
C2035      O2960   1.279       .  A
C2036      C2576   1.493       .  S
C2037      C2566   1.485       .  S
C2038      C2556   1.485       .  S
O2039     Cu2047   2.031       .  S
O2039      C2049   1.280       .  A
O2040     Cu2047   2.027       .  S
O2040      C2050   1.280       .  A
O2041     Cu2047   2.017       .  S
O2041      C2051   1.279       .  A
O2042     Cu2047   2.012       .  S
O2042      C2052   1.278       .  A
O2043     Cu2048   2.013       .  S
O2044     Cu2048   2.019       .  S
O2045     Cu2048   2.026       .  S
O2046     Cu2048   2.033       .  S
C2049      C2546   1.497       .  S
C2051      C2559   1.485       .  S
C2052      C2569   1.483       .  S
O2053     Cu2061   2.018       .  S
O2053      C2063   1.278       .  A
O2054     Cu2061   2.028       .  S
O2054      C2064   1.279       .  A
O2055     Cu2061   2.027       .  S
O2055      C2065   1.280       .  A
O2056     Cu2989   2.025       .  S
O2056      C2066   1.279       .  A
O2057     Cu2990   2.018       .  S
O2057      C2066   1.278       .  A
O2058     Cu2062   2.008       .  S
O2058      C2065   1.277       .  A
O2059     Cu2062   2.063       .  S
O2059      C2064   1.285       .  A
O2060     Cu2062   2.051       .  S
O2060      C2063   1.282       .  A
Cu2061     O2984   2.024       .  S
Cu2061    Cu2062   2.369       .  S
Cu2062     O2985   2.008       .  S
C2064      C2536   1.510       .  S
C2065      C2519   1.487       .  S
C2066      C2529   1.483       .  S
O2067     Cu2075   2.006       .  S
O2067      C2077   1.276       .  A
O2068     Cu2075   2.022       .  S
O2068      C2078   1.279       .  A
O2069     Cu2075   2.047       .  S
O2069      C2079   1.282       .  A
O2070     Cu2075   2.052       .  S
O2070      C2080   1.282       .  A
O2071     Cu2076   2.012       .  S
O2071      C2080   1.278       .  A
O2072     Cu2076   2.007       .  S
O2072      C2079   1.277       .  A
O2073     Cu2076   2.018       .  S
O2073      C2078   1.278       .  A
O2074     Cu2076   2.021       .  S
O2074      C2077   1.279       .  A
Cu2075    Cu2076   2.366       .  S
C2077      C2526   1.477       .  S
C2078      C2516   1.489       .  S
C2080      C2506   1.516       .  S
O2081      C2091   1.277       .  A
O2082     Cu2089   2.006       .  S
O2082      C2092   1.277       .  A
O2083     Cu2089   2.031       .  S
O2083      C2093   1.280       .  A
O2084     Cu2089   2.039       .  S
O2084      C2094   1.282       .  A
O2085      C3022   1.279       .  A
O2086      C3021   1.277       .  A
O2087      C3020   1.278       .  A
O2088     Cu2090   2.014   1_655  S
O2088      C3019   1.278       .  A
C2091      O3016   1.278       .  A
C2091      C2476   1.481       .  S
C2092      O3015   1.279       .  A
C2092      C2486   1.486       .  S
C2093      O3014   1.278       .  A
C2094      O3013   1.279       .  A
C2094      C3427   1.494       .  S
O2095     Cu2103   2.018       .  S
O2095      C2105   1.279       .  A
O2096     Cu2103   2.015       .  S
O2096      C2106   1.279       .  A
O2097      C2107   1.278       .  A
O2098     Cu2103   2.014       .  S
O2098      C2108   1.278       .  A
O2099     Cu2104   2.011       .  S
O2099      C2108   1.278       .  A
O2100      C2107   1.279       .  A
O2101     Cu2104   2.037       .  S
O2101      C2106   1.280       .  A
O2102     Cu2104   2.033       .  S
O2102      C2105   1.281       .  A
Cu2103    Cu2104   2.371       .  S
C2105      C2469   1.495       .  S
C2106      C2162   1.481       .  S
C2107      C2446   1.486       .  S
C2108      C2459   1.478       .  S
O2109     Cu2117   2.011       .  S
O2109      C3047   1.278       .  A
O2110     Cu2117   2.001       .  S
O2110      C3048   1.277       .  A
O2111     Cu2117   2.015       .  S
O2111      C3049   1.278       .  A
O2112     Cu2117   2.015       .  S
O2112      C3050   1.278       .  A
O2113     Cu2118   2.010       .  S
O2113      C2122   1.278       .  A
O2114     Cu2118   2.005       .  S
O2114      C2121   1.278       .  A
O2115     Cu2118   2.027       .  S
O2115      C2120   1.279       .  A
O2116     Cu2118   2.033       .  S
O2116      C2119   1.280       .  A
Cu2117    Cu3046   2.372       .  S
Cu2118    Cu3045   2.372       .  S
C2119      O3037   1.278       .  A
C2119      C2436   1.488       .  S
C2120      O3038   1.278       .  A
C2120      C2176   1.475       .  S
C2121      O3039   1.277       .  A
C2121      C2479   1.481       .  S
C2122      O3040   1.279       .  A
C2122      C2489   1.487       .  S
O2123     Cu2131   2.028       .  S
O2123      C2133   1.281       .  A
O2124     Cu2131   2.033       .  S
O2124      C2134   1.280       .  A
O2125     Cu2131   2.011       .  S
O2125      C2135   1.277       .  A
O2126     Cu2131   2.002       .  S
O2126      C2136   1.276       .  A
O2127     Cu2132   2.023       .  S
O2127      C2136   1.279       .  A
O2128     Cu2132   2.024       .  S
O2128      C2135   1.280       .  A
O2129     Cu2132   2.005       .  S
O2129      C2134   1.277       .  A
O2130     Cu2132   2.010       .  S
O2130      C2133   1.277       .  A
Cu2131    Cu2132   2.372       .  S
C2133      C2426   1.491       .  S
C2134      C2190   1.475       .  S
C2135      C2449   1.486       .  S
C2136      C2456   1.478       .  S
O2137     Cu2145   2.011       .  S
O2137      C3075   1.277       .  A
O2138     Cu2145   2.001       .  S
O2138      C3076   1.276       .  A
O2139     Cu2145   2.013   1_655  S
O2139      C3077   1.277       .  A
O2140      C3078   1.277       .  A
O2141      C2150   1.279       .  A
O2142     Cu2146   2.025       .  S
O2142      C2149   1.279       .  A
O2143     Cu2146   2.031       .  S
O2143      C2148   1.280       .  A
O2144     Cu2146   2.037       .  S
O2144      C2147   1.280   1_655  A
Cu2145    Cu3074   2.363   1_455  S
Cu2146    Cu3073   2.365       .  S
C2147      O3065   1.277       .  A
C2147      C2659   1.516       .  S
C2148      O3066   1.278       .  A
C2149      O3067   1.278       .  A
C2149      C2406   1.486       .  S
C2150      O3068   1.275       .  A
C2150      C2416   1.475       .  S
O2151     Cu2159   2.045       .  S
O2151      C2161   1.283       .  A
O2152     Cu2159   2.041       .  S
O2152      C2162   1.281       .  A
O2153      C2163   1.277       .  A
O2154     Cu2159   2.007       .  S
O2154      C2164   1.277       .  A
O2155     Cu2160   2.013       .  S
O2155      C2164   1.279       .  A
O2156      C2163   1.280       .  A
O2157     Cu2160   2.012       .  S
O2157      C2162   1.278       .  A
O2158     Cu2160   2.013       .  S
O2158      C2161   1.277       .  A
Cu2159    Cu2160   2.368       .  S
C2161      C2626   1.504       .  S
C2163      C2386   1.485       .  S
C2164      C2396   1.480       .  S
O2165     Cu2173   2.033       .  S
O2165      C2175   1.280       .  A
O2166     Cu2173   2.027       .  S
O2166      C2176   1.280       .  A
O2167     Cu2173   2.005       .  S
O2167      C2177   1.276       .  A
O2168     Cu2173   2.005       .  S
O2168      C2178   1.277       .  A
O2169     Cu2174   2.011       .  S
O2169      C3106   1.278       .  A
O2170     Cu2174   2.019       .  S
O2170      C3105   1.279       .  A
O2171     Cu2174   2.004       .  S
O2171      C3104   1.277       .  A
O2172     Cu2174   2.020       .  S
O2172      C3103   1.278       .  A
Cu2173    Cu3102   2.366       .  S
Cu2174    Cu3101   2.363       .  S
C2175      O3100   1.277       .  A
C2175      C2619   1.514       .  S
C2176      O3099   1.278       .  A
C2177      O3098   1.281       .  A
C2177      C2409   1.484       .  S
C2178      O3097   1.279       .  A
C2178      C2419   1.480       .  S
O2179     Cu2187   2.016       .  S
O2179      C2189   1.278       .  A
O2180     Cu2187   2.010       .  S
O2180      C2190   1.278       .  A
O2181     Cu2187   2.012       .  S
O2181      C2191   1.278       .  A
O2182     Cu2187   2.007       .  S
O2182      C2192   1.278       .  A
O2183     Cu2188   2.013       .  S
O2183      C2192   1.278       .  A
O2184     Cu2188   2.014       .  S
O2184      C2191   1.278       .  A
O2185     Cu2188   2.029       .  S
O2185      C2190   1.279       .  A
O2186     Cu2188   2.027       .  S
O2186      C2189   1.280       .  A
Cu2187    Cu2188   2.372       .  S
C2189      C2589   1.491       .  S
C2191      C2389   1.483       .  S
C2192      C2399   1.482       .  S
O2193     Cu2201   2.047       .  S
O2193      C3131   1.282       .  A
O2194     Cu2201   2.052       .  S
O2194      C3132   1.282       .  A
O2195     Cu2201   2.005       .  S
O2195      C3133   1.276       .  A
O2196      C3134   1.277       .  A
O2197      C2206   1.279       .  A
O2198     Cu2202   2.022       .  S
O2198      C2205   1.280       .  A
O2199     Cu2202   2.012       .  S
O2199      C2204   1.275       .  A
O2200     Cu2202   2.018       .  S
O2200      C2203   1.278       .  A
Cu2201    Cu3130   2.366       .  S
Cu2202    Cu3129   2.371       .  S
C2203      O3121   1.282       .  A
C2203      C2496   1.495       .  S
C2204      O3122   1.285       .  A
C2205      O3123   1.277       .  A
C2205      C2379   1.487       .  S
C2206      O3124   1.277       .  A
C2206      C2369   1.481       .  S
O2207     Cu2215   2.035       .  S
O2207      C2217   1.281       .  A
O2208     Cu2215   2.035       .  S
O2208      C2218   1.281       .  A
O2209     Cu2215   2.013       .  S
O2209      C2219   1.278       .  A
O2210      C2220   1.278       .  A
O2211      C2220   1.278       .  A
O2212     Cu2216   2.013       .  S
O2212      C2219   1.278       .  A
O2213     Cu2216   2.017       .  S
O2213      C2218   1.279       .  A
O2214     Cu2216   2.017       .  S
O2214      C2217   1.278       .  A
Cu2215    Cu2216   2.371       .  S
C2218      C2466   1.495       .  S
C2219      C2359   1.481       .  S
C2220      C2346   1.485       .  S
O2221     Cu2229   2.017       .  S
O2221      C2231   1.280       .  A
O2222     Cu2229   2.020       .  S
O2222      C2232   1.279       .  A
O2223     Cu2229   2.007       .  S
O2223      C2233   1.277       .  A
O2224     Cu2229   2.012       .  S
O2224      C3162   1.277       .  A
O2225     Cu2230   2.038       .  S
O2225      C2234   1.280       .  A
O2226     Cu2230   2.045       .  S
O2226      C3161   1.281       .  A
O2227     Cu2230   2.013       .  S
O2227      C3160   1.279       .  A
O2228     Cu2230   2.014       .  S
O2228      C3159   1.278       .  A
Cu2229    Cu3158   2.371       .  S
Cu2230    Cu3157   2.366       .  S
C2231      O3156   1.277       .  A
C2231      C2376   1.486       .  S
C2232      O3155   1.278       .  A
C2232      C2366   1.480       .  S
C2233      O3154   1.281       .  A
C2234      O3152   1.278       .  A
C2234      C2439   1.488       .  S
O2235     Cu2243   2.026       .  S
O2235      C2245   1.280       .  A
O2236     Cu2243   2.025       .  S
O2236      C2246   1.280       .  A
O2237     Cu2243   2.009       .  S
O2237      C2247   1.277       .  A
O2238     Cu2243   1.997       .  S
O2238      C2248   1.276       .  A
O2239     Cu2244   2.023       .  S
O2239      C2248   1.279       .  A
O2240     Cu2244   2.028       .  S
O2240      C2247   1.280       .  A
O2241     Cu2244   2.012       .  S
O2241      C2246   1.278       .  A
O2242     Cu2244   2.013       .  S
O2242      C2245   1.278       .  A
Cu2243    Cu2244   2.372       .  S
C2246      C2429   1.489       .  S
C2247      C2349   1.487       .  S
C2248      C2356   1.480       .  S
O2249     Cu2257   2.055       .  S
O2249      C2259   1.283       .  A
O2250     Cu2257   2.043       .  S
O2250      C3188   1.282       .  A
O2251     Cu2257   1.998   1_545  S
O2251      C2261   1.276       .  A
O2252     Cu3185   2.008       .  S
O2252      C2262   1.277       .  A
O2253     Cu2258   2.019       .  S
O2254     Cu3186   2.022   1_545  S
O2255     Cu2258   2.011       .  S
O2256     Cu2258   2.009       .  S
Cu2257     O3180   2.010       .  S
Cu2258     O3182   2.021       .  S
C2259      C2795   1.486       .  S
C2260      O3178   1.283       .  A
C2260      C2579   1.492       .  S
C2261      C2339   1.487       .  S
C2262      C2326   1.482       .  S
O2263     Cu2271   2.054       .  S
O2263      C2273   1.283       .  A
O2264     Cu2271   2.045       .  S
O2264      C2274   1.282       .  A
O2265     Cu2271   2.007       .  S
O2265      C2275   1.277       .  A
O2266     Cu2271   2.009       .  S
O2266      C2276   1.277       .  A
O2267     Cu2272   2.013       .  S
O2268     Cu2272   2.011       .  S
O2269     Cu2272   2.019       .  S
O2270     Cu2272   2.017       .  S
C2274      C2549   1.497       .  S
C2275      C2329   1.480       .  S
C2276      C2336   1.487       .  S
O2277     Cu3213   2.011       .  S
O2277      C2287   1.277       .  A
O2278     Cu2285   2.013       .  S
O2278      C2288   1.278       .  A
O2279     Cu2285   2.047       .  S
O2279      C2289   1.282       .  A
O2280     Cu2285   2.051       .  S
O2280      C2290   1.283       .  A
O2281     Cu2286   2.037       .  S
O2281      C3218   1.281       .  A
O2282     Cu3214   2.038       .  S
O2282      C2289   1.281       .  A
O2283     Cu3214   2.023       .  S
O2283      C2288   1.279       .  A
O2284     Cu2286   2.017       .  S
O2284      C2287   1.279       .  A
Cu2285     O3205   2.009       .  S
Cu2285    Cu3214   2.368       .  S
Cu2286     O3210   2.032       .  S
Cu2286     O3211   2.022   1_545  S
Cu2286    Cu3213   2.369       .  S
C2287      C2319   1.481       .  S
C2288      C2306   1.485       .  S
C2290      O3209   1.282       .  A
C2290      C2539   1.510       .  S
O2291     Cu2299   2.023       .  S
O2291      C2301   1.279       .  A
O2292     Cu2299   2.025       .  S
O2292      C2302   1.279       .  A
O2293     Cu2299   2.010       .  S
O2293      C2303   1.277       .  A
O2294     Cu2299   2.018       .  S
O2294      C2304   1.278       .  A
O2295     Cu2300   2.019       .  S
O2295      C2304   1.278       .  A
O2296     Cu2300   2.028       .  S
O2296      C2303   1.280       .  A
O2297     Cu2300   2.045       .  S
O2297      C2302   1.281       .  A
O2298     Cu2300   2.037       .  S
O2298      C2301   1.281       .  A
Cu2299    Cu2300   2.363       .  S
C2302      C2509   1.522       .  S
C2303      C2309   1.487       .  S
C2304      C2316   1.484       .  S
C2305      C2306   1.412       .  A
C2305      C2310   1.410       .  A
C2305     Br2312   1.932       .  S
C2306      C2307   1.413       .  A
C2307      C2308   1.412       .  A
C2307     Br2314   1.932       .  S
C2308      C2309   1.414       .  A
C2308     Br2313   1.932       .  S
C2309      C2310   1.412       .  A
C2310     Br2311   1.928       .  S
C2315      C2316   1.411       .  A
C2315      C2320   1.409       .  A
C2315     Br2322   1.925       .  S
C2316      C2317   1.412       .  A
C2317      C2318   1.411       .  A
C2317     Br2324   1.931       .  S
C2318      C2319   1.413       .  A
C2318     Br2323   1.932       .  S
C2319      C2320   1.410       .  A
C2320     Br2321   1.933       .  S
C2325      C2326   1.412       .  A
C2325      C2330   1.409       .  A
C2325     Br2332   1.931       .  S
C2327      C2328   1.409       .  A
C2327     Br2334   1.933       .  S
C2328     Br2333   1.932       .  S
C2329      C2330   1.411       .  A
C2330     Br2331   1.932       .  S
C2335      C2340   1.409       .  A
C2335     Br2342   1.933       .  S
C2336      C2337   1.414       .  A
C2337      C2338   1.411       .  A
C2337     Br2344   1.933       .  S
C2338      C2339   1.414       .  A
C2338     Br2343   1.933       .  S
C2340     Br2341   1.935       .  S
C2345      C2346   1.412       .  A
C2345      C2350   1.411       .  A
C2345     Br2352   1.933       .  S
C2346      C2347   1.412       .  A
C2347      C2348   1.410       .  A
C2347     Br2354   1.933       .  S
C2348      C2349   1.414       .  A
C2348     Br2353   1.933       .  S
C2349      C2350   1.413       .  A
C2350     Br2351   1.931       .  S
C2355      C2356   1.411       .  A
C2355      C2360   1.406       .  A
C2355     Br2362   1.931       .  S
C2356      C2357   1.411       .  A
C2357      C2358   1.411       .  A
C2357     Br2364   1.931       .  S
C2358      C2359   1.412       .  A
C2358     Br2363   1.931       .  S
C2359      C2360   1.411       .  A
C2360     Br2361   1.931       .  S
C2365      C3294   1.413       .  A
C2365      C2370   1.404       .  A
C2365     Br2372   1.933       .  S
C2366      C3293   1.409       .  A
C2366      C2367   1.411       .  A
C2367      C2368   1.412       .  A
C2367     Br2374   1.930       .  S
C2368      C2369   1.412       .  A
C2368     Br2373   1.931       .  S
C2369      C3298   1.410       .  A
C2370      C3297   1.415       .  A
C2370     Br2371   1.934       .  S
C2375      C2376   1.414       .  A
C2375      C2380   1.412       .  A
C2375     Br2382   1.933       .  S
C2376      C3305   1.411       .  A
C2377      C3304   1.414       .  A
C2377      C2378   1.410       .  A
C2377     Br2384   1.935       .  S
C2378      C3307   1.414       .  A
C2378     Br2383   1.934       .  S
C2379      C3306   1.413       .  A
C2379      C2380   1.414       .  A
C2380     Br2381   1.932       .  S
C2385      C2386   1.413       .  A
C2385      C2390   1.410       .  A
C2385     Br2392   1.932       .  S
C2386      C2387   1.414       .  A
C2387      C2388   1.410       .  A
C2387     Br2394   1.933       .  S
C2388      C2389   1.411       .  A
C2388     Br2393   1.933       .  S
C2389      C2390   1.412       .  A
C2390     Br2391   1.933       .  S
C2395      C2396   1.412       .  A
C2395      C2400   1.410       .  A
C2395     Br2402   1.932       .  S
C2396      C2397   1.410       .  A
C2397      C2398   1.407       .  A
C2397     Br2404   1.933       .  S
C2398      C2399   1.413       .  A
C2398     Br2403   1.933       .  S
C2399      C2400   1.413       .  A
C2400     Br2401   1.931       .  S
C2405      C2406   1.413       .  A
C2405      C2410   1.412       .  A
C2405     Br2412   1.932       .  S
C2406      C3335   1.412       .  A
C2407      C3334   1.417       .  A
C2407      C2408   1.410       .  A
C2407     Br2414   1.932   1_565  S
C2408      C3337   1.413       .  A
C2408     Br2413   1.934   1_565  S
C2409      C3336   1.409       .  A
C2409      C2410   1.414       .  A
C2410     Br2411   1.933       .  S
C2415      C3344   1.414       .  A
C2415      C2420   1.408       .  A
C2415     Br2422   1.936       .  S
C2416      C3343   1.411       .  A
C2416      C2417   1.407       .  A
C2417      C2418   1.406       .  A
C2417     Br2424   1.930       .  S
C2418      C2419   1.411       .  A
C2418     Br2423   1.925       .  S
C2419      C3348   1.412       .  A
C2420      C3347   1.414       .  A
C2420     Br2421   1.934       .  S
C2425      C2426   1.415       .  A
C2425      C2430   1.412       .  A
C2425     Br2432   1.933       .  S
C2426      C2427   1.412       .  A
C2427      C2428   1.410       .  A
C2427     Br2434   1.925       .  S
C2428      C2429   1.411   1_554  A
C2428     Br2433   1.926   1_554  S
C2429      C2430   1.413   1_556  A
C2430     Br2431   1.933   1_554  S
C2435      C3364   1.414       .  A
C2435      C2440   1.412       .  A
C2435     Br2442   1.934       .  S
C2436      C3363   1.412       .  A
C2436      C2437   1.411       .  A
C2437      C2438   1.413       .  A
C2437     Br2444   1.927       .  S
C2438      C2439   1.411   1_554  A
C2438     Br2443   1.926   1_554  S
C2439      C3368   1.411   1_556  A
C2440      C3367   1.414   1_554  A
C2440     Br2441   1.933   1_554  S
C2445      C2446   1.413       .  A
C2445      C2450   1.411       .  A
C2445     Br2452   1.932       .  S
C2446      C2447   1.413       .  A
C2447      C2448   1.410       .  A
C2447     Br2454   1.933       .  S
C2448      C2449   1.413       .  A
C2448     Br2453   1.932       .  S
C2449      C2450   1.412       .  A
C2450     Br2451   1.932       .  S
C2455      C2456   1.410       .  A
C2455      C2460   1.410       .  A
C2455     Br2462   1.930       .  S
C2456      C2457   1.410       .  A
C2457      C2458   1.406       .  A
C2457     Br2464   1.929       .  S
C2458      C2459   1.410       .  A
C2458     Br2463   1.930       .  S
C2459      C2460   1.411       .  A
C2460     Br2461   1.930       .  S
C2465      C2470   1.413       .  A
C2465     Br2472   1.925   1_554  S
C2466      C2467   1.414   1_556  A
C2467      C2468   1.413       .  A
C2467     Br2474   1.933   1_554  S
C2468      C2469   1.415       .  A
C2468     Br2473   1.932       .  S
C2470     Br2471   1.927       .  S
C2475      C2476   1.411       .  A
C2475      C2480   1.404       .  A
C2475     Br2482   1.931       .  S
C2476      C3405   1.414       .  A
C2477      C3404   1.414       .  A
C2477      C2478   1.410       .  A
C2477     Br2484   1.931       .  S
C2478      C3407   1.410       .  A
C2478     Br2483   1.932       .  S
C2479      C3406   1.413       .  A
C2479      C2480   1.411       .  A
C2480     Br2481   1.927       .  S
C2485      C3414   1.412       .  A
C2485      C2490   1.410       .  A
C2485     Br2492   1.933       .  S
C2486      C3413   1.414       .  A
C2486      C2487   1.413       .  A
C2487      C2488   1.410       .  A
C2487     Br2494   1.933       .  S
C2488      C2489   1.414       .  A
C2488     Br2493   1.933       .  S
C2489      C3418   1.414       .  A
C2490      C3417   1.413       .  A
C2490     Br2491   1.931       .  S
C2495      C2496   1.415   1_554  A
C2495      C2500   1.413       .  A
C2495     Br2502   1.931   1_554  S
C2497      C2498   1.415       .  A
C2497     Br2504   1.927   1_554  S
C2498     Br2503   1.928       .  S
C2499      C3022   1.494       .  S
C2499      C2500   1.412       .  A
C2500     Br2501   1.932       .  S
C2505      C2506   1.420       .  A
C2505      C2510   1.424       .  A
C2505     Br2512   1.935       .  S
C2506      C2507   1.418       .  A
C2507      C2508   1.414       .  A
C2507     Br2514   1.941       .  S
C2508      C2509   1.425       .  A
C2508     Br2513   1.939       .  S
C2509      C2510   1.427       .  A
C2510     Br2511   1.935       .  S
C2515      C2516   1.412       .  A
C2515      C2520   1.410       .  A
C2515     Br2522   1.930       .  S
C2516      C2517   1.415       .  A
C2517      C2518   1.413       .  A
C2517     Br2524   1.932       .  S
C2518      C2519   1.413       .  A
C2518     Br2523   1.932       .  S
C2519      C2520   1.413       .  A
C2520     Br2521   1.933       .  S
C2525      C2526   1.409       .  A
C2525      C2530   1.410       .  A
C2525     Br2532   1.930       .  S
C2526      C2527   1.409       .  A
C2527      C2528   1.409       .  A
C2527     Br2534   1.933       .  S
C2528      C2529   1.410       .  A
C2528     Br2533   1.921       .  S
C2529      C2530   1.412       .  A
C2530     Br2531   1.929       .  S
C2535      C2536   1.417       .  A
C2535      C2540   1.419       .  A
C2535     Br2542   1.933       .  S
C2536      C3465   1.416       .  A
C2537      C3464   1.418       .  A
C2537      C2538   1.421       .  A
C2537     Br2544   1.924       .  S
C2538      C3467   1.418       .  A
C2538     Br2543   1.932       .  S
C2539      C3466   1.418       .  A
C2539      C2540   1.416       .  A
C2540     Br2541   1.932       .  S
C2545      C2550   1.414       .  A
C2545     Br2552   1.931       .  S
C2546      C2547   1.416       .  A
C2547      C2548   1.417       .  A
C2547     Br2554   1.931       .  S
C2548      C2549   1.413       .  A
C2548     Br2553   1.930       .  S
C2550     Br2551   1.932       .  S
C2555      C2556   1.413       .  A
C2555      C2560   1.409       .  A
C2555     Br2562   1.932       .  S
C2557      C2558   1.412       .  A
C2557     Br2564   1.932   1_455  S
C2558     Br2563   1.932   1_455  S
C2559      C2560   1.411       .  A
C2560     Br2561   1.931       .  S
C2565      C2570   1.409       .  A
C2565     Br2572   1.934       .  S
C2566      C2567   1.413       .  A
C2567      C2568   1.410       .  A
C2567     Br2574   1.931       .  S
C2568      C2569   1.412       .  A
C2568     Br2573   1.932       .  S
C2570     Br2571   1.934       .  S
C2575      C2580   1.414       .  A
C2575     Br2582   1.932       .  S
C2576      C3505   1.413       .  A
C2577      C3504   1.411   1_545  A
C2577      C2578   1.413       .  A
C2577     Br2584   1.929       .  S
C2578      C3507   1.412   1_545  A
C2578     Br2583   1.929       .  S
C2579      C3506   1.412       .  A
C2580     Br2581   1.932       .  S
C2585      C2586   1.417       .  A
C2585      C2590   1.412       .  A
C2585     Br2592   1.933       .  S
C2586      C2587   1.417       .  A
C2587      C2588   1.414       .  A
C2587     Br2594   1.925       .  S
C2588      C2589   1.412       .  A
C2588     Br2593   1.934       .  S
C2589      C2590   1.412       .  A
C2590     Br2591   1.933       .  S
C2595      C2596   1.415       .  A
C2595      C2600   1.406       .  A
C2595     Br2602   1.936       .  S
C2596      C2597   1.414       .  A
C2597      C2598   1.407       .  A
C2597     Br2604   1.934       .  S
C2598      C2599   1.411       .  A
C2598     Br2603   1.934       .  S
C2599      C2600   1.411       .  A
C2600     Br2601   1.935       .  S
C2605      C2606   1.417       .  A
C2605      C2610   1.411       .  A
C2605     Br2612   1.937       .  S
C2606      C2607   1.418       .  A
C2607      C2608   1.411       .  A
C2607     Br2614   1.936       .  S
C2608      C2609   1.417       .  A
C2608     Br2613   1.933       .  S
C2609      C2610   1.418       .  A
C2610     Br2611   1.937       .  S
C2615      C2616   1.409       .  A
C2615      C2620   1.414       .  A
C2615     Br2622   1.934       .  S
C2616      C3545   1.406       .  A
C2617      C3544   1.407   1_545  A
C2617      C2618   1.417       .  A
C2617     Br2624   1.926       .  S
C2618      C3547   1.426   1_545  A
C2618     Br2623   1.934       .  S
C2619      C3546   1.428       .  A
C2619      C2620   1.426       .  A
C2620     Br2621   1.936       .  S
C2625      C2626   1.419       .  A
C2625      C2630   1.415       .  A
C2625     Br2632   1.933       .  S
C2627      C2628   1.414       .  A
C2627     Br2634   1.933       .  S
C2628     Br2633   1.932       .  S
C2629      C2630   1.413       .  A
C2630     Br2631   1.933       .  S
C2635      C2640   1.408       .  A
C2635     Br2642   1.936       .  S
C2636      C2637   1.414       .  A
C2637      C2638   1.409       .  A
C2637     Br2644   1.935       .  S
C2638     Br2643   1.936       .  S
C2639      C2640   1.414   1_455  A
C2640     Br2641   1.936       .  S
C2645      C2650   1.414       .  A
C2645     Br2652   1.931       .  S
C2646      C2647   1.414       .  A
C2647      C2648   1.410       .  A
C2647     Br2654   1.934   1_455  S
C2648     Br2653   1.934   1_455  S
C2649      C2650   1.413       .  A
C2650     Br2651   1.932       .  S
C2655      C2660   1.416       .  A
C2655     Br2662   1.934       .  S
C2656      C3585   1.404       .  A
C2657      C3584   1.405   1_645  A
C2657      C2658   1.411       .  A
C2657     Br2664   1.934       .  S
C2658      C3587   1.423   1_645  A
C2658     Br2663   1.930       .  S
C2659      C3586   1.429   1_455  A
C2660     Br2661   1.937       .  S
C2665      C2666   1.411       .  A
C2665      C2670   1.411       .  A
C2665     Br2672   1.931       .  S
C2666      C2667   1.413       .  A
C2667      C2668   1.410       .  A
C2667     Br2674   1.933       .  S
C2668      C2669   1.412       .  A
C2668     Br2673   1.932       .  S
C2669      C2670   1.412       .  A
C2670     Br2671   1.930       .  S
C2675      C2676   1.411       .  A
C2675      C2680   1.407       .  A
C2675     Br2682   1.934       .  S
C2676      C2677   1.412       .  A
C2677      C2678   1.410       .  A
C2677     Br2684   1.931       .  S
C2678      C2679   1.412       .  A
C2678     Br2683   1.929       .  S
C2679      C2680   1.413       .  A
C2680     Br2681   1.933       .  S
C2685      C3614   1.410       .  A
C2685      C2690   1.411       .  A
C2685     Br2692   1.927       .  S
C2686      C3613   1.415       .  A
C2686      C2687   1.413       .  A
C2687      C2688   1.408       .  A
C2687     Br2694   1.929   1_565  S
C2688      C2689   1.410       .  A
C2688     Br2693   1.930   1_565  S
C2689      C3618   1.414       .  A
C2690      C3617   1.409       .  A
C2690     Br2691   1.926       .  S
C2695      C3624   1.412       .  A
C2695      C2700   1.406       .  A
C2695     Br2702   1.929       .  S
C2696      C3623   1.411       .  A
C2696      C2697   1.410       .  A
C2697      C2698   1.404       .  A
C2697     Br2704   1.926       .  S
C2698      C2699   1.408       .  A
C2698     Br2703   1.928       .  S
C2699      C3628   1.413       .  A
C2700      C3627   1.412       .  A
C2700     Br2701   1.931       .  S
C2705      C2706   1.415       .  A
C2705      C2710   1.414       .  A
C2705     Br2712   1.934       .  S
C2706      C2707   1.412       .  A
C2707      C2708   1.414       .  A
C2707     Br2714   1.932       .  S
C2708      C2709   1.416       .  A
C2708     Br2713   1.932       .  S
C2709      C2710   1.417       .  A
C2710     Br2711   1.933       .  S
C2715      C2716   1.411       .  A
C2715      C2720   1.407       .  A
C2715     Br2722   1.933       .  S
C2716      C2717   1.411       .  A
C2717      C2718   1.409       .  A
C2717     Br2724   1.931       .  S
C2718      C2719   1.412       .  A
C2718     Br2723   1.932       .  S
C2719      C2720   1.412       .  A
C2720     Br2721   1.933       .  S
C2725      C2726   1.414       .  A
C2725      C2730   1.411       .  A
C2725     Br2732   1.933       .  S
C2726      C2727   1.413       .  A
C2727      C2728   1.412       .  A
C2727     Br2734   1.931       .  S
C2728      C2729   1.413       .  A
C2728     Br2733   1.932       .  S
C2729      C2730   1.412       .  A
C2730     Br2731   1.933       .  S
C2735      C2736   1.407   1_545  A
C2735      C2740   1.420       .  A
C2735     Br2742   1.932       .  S
C2736      C2824   1.497       .  S
C2736      C3665   1.409       .  A
C2737      C3664   1.417       .  A
C2737      C2738   1.418       .  A
C2737     Br2744   1.932       .  S
C2738      C3667   1.418       .  A
C2738     Br2743   1.934       .  S
C2739      C3666   1.427       .  A
C2739      C2740   1.431   1_565  A
C2740     Br2741   1.934       .  S
C2745      C2750   1.415       .  A
C2745     Br2752   1.933       .  S
C2746      C2747   1.416   1_455  A
C2747      C2748   1.415       .  A
C2747     Br2754   1.924       .  S
C2748     Br2753   1.933       .  S
C2749      C2750   1.415       .  A
C2750     Br2751   1.934       .  S
C2755      C2756   1.410       .  A
C2755      C2760   1.406       .  A
C2755     Br2762   1.933   1_455  S
C2757      C2758   1.407       .  A
C2757     Br2764   1.933       .  S
C2758     Br2763   1.932       .  S
C2759      C2760   1.412       .  A
C2760     Br2761   1.933   1_455  S
C2765      C2766   1.418   1_655  A
C2765      C2770   1.412       .  A
C2765     Br2772   1.935       .  S
C2767      C2768   1.412       .  A
C2767     Br2774   1.939       .  S
C2768     Br2773   1.937       .  S
C2769      C2770   1.420   1_455  A
C2770     Br2771   1.938       .  S
C2775      C2780   1.418       .  A
C2775     Br2782   1.935       .  S
C2776      C3705   1.428   1_465  A
C2777      C3704   1.417   1_655  A
C2777      C2778   1.419       .  A
C2777     Br2784   1.932       .  S
C2778      C3707   1.416   1_655  A
C2778     Br2783   1.931       .  S
C2779      C3706   1.408   1_565  A
C2780     Br2781   1.933       .  S
O2785     Cu2793   2.050       .  S
O2785      C2795   1.281       .  A
O2786     Cu2793   2.041       .  S
O2787     Cu2793   2.006       .  S
O2787      C2797   1.278       .  A
O2788      C2798   1.276       .  A
O2789     Cu2794   2.012       .  S
O2791     Cu2794   2.031   1_655  S
O2791      C2796   1.280   1_655  A
O2792     Cu2794   2.013       .  S
C2796      C3707   1.504       .  S
O2799     Cu2807   2.002       .  S
O2799      C2809   1.276       .  A
O2800     Cu2807   1.995       .  S
O2800      C2810   1.276       .  A
O2801     Cu2807   2.015       .  S
O2801      C2811   1.279       .  A
O2802     Cu2807   2.037   1_655  S
O2802      C2812   1.281   1_655  A
O2803     Cu2808   2.030       .  S
O2804     Cu2808   2.044       .  S
O2805     Cu2808   2.013       .  S
O2806     Cu2808   2.014       .  S
C2809      C3694   1.499       .  S
C2810      C3687   1.477       .  S
C2812      C3674   1.501       .  S
O2813     Cu2821   2.034       .  S
O2813      C2823   1.281       .  A
O2814     Cu2821   2.040       .  S
O2814      C2824   1.281   1_545  A
O2815     Cu2821   2.016   1_565  S
O2815      C2825   1.278       .  A
O2816      C2826   1.279       .  A
O2817     Cu2822   2.018       .  S
O2817      C2826   1.278       .  A
O2818      C2825   1.278       .  A
O2819      C2824   1.280   1_545  A
O2820      C2823   1.280       .  A
C2823      C3217   1.487       .  S
C2825      C3647   1.487       .  S
C2826      C3654   1.487       .  S
O2827     Cu2835   2.021       .  S
O2827      C2837   1.279       .  A
O2828     Cu2835   2.019       .  S
O2828      C2838   1.279       .  A
O2829     Cu2835   2.030       .  S
O2829      C2839   1.279       .  A
O2830     Cu2835   2.025       .  S
O2830      C2840   1.280       .  A
O2831     Cu2836   2.028       .  S
O2831      C2840   1.280       .  A
O2832     Cu2836   2.025       .  S
O2832      C2839   1.280       .  A
O2833     Cu2836   2.009       .  S
O2833      C2838   1.278       .  A
O2834     Cu2836   2.018       .  S
O2834      C2837   1.279       .  A
Cu2835    Cu2836   2.369       .  S
C2837      C3657   1.487       .  S
C2838      C3644   1.485       .  S
C2839      C3229   1.481       .  S
C2840      C3637   1.498       .  S
O2841     Cu2849   2.040       .  S
O2842     Cu2849   2.045       .  S
O2844     Cu2849   2.014       .  S
O2845     Cu2850   2.031       .  S
O2845      C2854   1.280       .  A
O2846      C2853   1.278       .  A
O2847     Cu2850   2.030       .  S
O2847      C2852   1.279       .  A
O2848     Cu2850   2.028       .  S
O2848      C2851   1.280       .  A
C2852      C3704   1.505   1_655  S
C2853      C3627   1.484       .  S
C2854      C3614   1.480       .  S
O2855     Cu2863   2.028       .  S
O2855      C2865   1.280       .  A
O2856     Cu2863   2.023       .  S
O2856      C2866   1.279       .  A
O2857      C2867   1.278       .  A
O2858     Cu2863   2.007       .  S
O2858      C2868   1.278       .  A
O2859     Cu2864   2.012       .  S
O2859      C2868   1.278       .  A
O2860      C2867   1.278       .  A
O2861     Cu2864   2.034       .  S
O2861      C2866   1.280       .  A
O2862     Cu2864   2.030       .  S
O2862      C2865   1.281       .  A
Cu2863    Cu2864   2.370       .  S
C2865      C3677   1.499       .  S
C2866      C3145   1.482       .  S
C2867      C3597   1.482       .  S
C2868      C3604   1.482       .  S
O2869     Cu2877   2.024       .  S
O2869      C2879   1.279       .  A
O2870     Cu2877   2.018       .  S
O2870      C2880   1.278       .  A
O2871     Cu2877   2.029       .  S
O2871      C2881   1.280       .  A
O2872     Cu2877   2.019       .  S
O2872      C2882   1.279       .  A
O2873     Cu2878   2.005       .  S
O2874     Cu2878   2.001       .  S
O2875     Cu2878   2.042       .  S
O2876     Cu2878   2.046       .  S
C2879      C3667   1.507       .  S
C2880      C3161   1.489       .  S
C2881      C3617   1.480       .  S
C2882      C3624   1.485       .  S
O2883     Cu2891   2.028       .  S
O2883      C2893   1.280       .  A
O2884     Cu2891   2.025       .  S
O2884      C2894   1.280       .  A
O2885     Cu2891   2.011       .  S
O2885      C2895   1.278       .  A
O2886     Cu2891   2.014       .  S
O2886      C2896   1.278       .  A
O2887     Cu2892   2.012       .  S
O2887      C2896   1.278       .  A
O2888     Cu2892   2.012       .  S
O2888      C2895   1.278       .  A
O2889     Cu2892   2.027       .  S
O2889      C2894   1.279       .  A
O2890     Cu2892   2.025       .  S
O2890      C2893   1.280       .  A
Cu2891    Cu2892   2.371       .  S
C2893      C3634   1.495       .  S
C2894      C3173   1.480       .  S
C2895      C3607   1.484       .  S
C2896      C3594   1.482       .  S
O2897     Cu2905   2.036       .  S
O2898     Cu2905   2.038       .  S
O2899     Cu2905   2.029       .  S
O2901     Cu2906   2.004       .  S
O2901      C2910   1.277   1_655  A
O2902      C2909   1.280       .  A
O2903     Cu2906   2.009       .  S
O2903      C2908   1.277   1_655  A
O2904     Cu2906   2.004   1_445  S
C2908      C3584   1.483       .  S
C2909      C3574   1.497       .  S
C2910      C3567   1.483       .  S
O2911     Cu2919   2.018       .  S
O2912     Cu2919   2.003       .  S
O2913     Cu2919   2.025   1_655  S
O2914     Cu2919   2.017       .  S
O2915     Cu2920   2.035       .  S
O2915      C2924   1.281       .  A
O2916     Cu2920   2.038       .  S
O2916      C2923   1.281       .  A
O2917     Cu2920   2.008       .  S
O2917      C2922   1.277       .  A
O2918     Cu2920   2.027       .  S
O2918      C2921   1.279       .  A
C2921      C3577   1.495       .  S
C2922      C3564   1.484       .  S
C2923      C3557   1.496       .  S
C2924      C2978   1.480       .  S
O2925      C2935   1.277       .  A
O2926     Cu2933   2.006   1_565  S
O2926      C2936   1.278       .  A
O2927     Cu2933   2.044       .  S
O2927      C2937   1.277       .  A
O2928     Cu2933   2.029       .  S
O2928      C2938   1.279       .  A
O2929      C2938   1.282       .  A
O2930      C2937   1.283       .  A
O2931      C2936   1.276       .  A
O2932     Cu2934   2.010       .  S
O2932      C2935   1.277       .  A
C2935      C3534   1.505       .  S
C2936      C3524   1.480       .  S
C2937      C2991   1.486       .  S
C2938      C3544   1.495   1_545  S
O2939     Cu2947   2.039       .  S
O2939      C2949   1.280       .  A
O2940     Cu2947   2.022       .  S
O2940      C2950   1.279       .  A
O2941     Cu2947   2.014       .  S
O2941      C2951   1.277       .  A
O2942     Cu2947   2.005       .  S
O2942      C2952   1.277       .  A
O2943     Cu2948   1.997       .  S
O2943      C2952   1.277       .  A
O2944     Cu2948   2.008       .  S
O2944      C2951   1.276       .  A
O2945     Cu2948   2.022       .  S
O2945      C2950   1.279       .  A
O2946     Cu2948   2.004       .  S
O2946      C2949   1.277       .  A
Cu2947    Cu2948   2.365       .  S
C2949      C3007   1.477       .  S
C2950      C3514   1.492       .  S
C2951      C3537   1.506       .  S
C2952      C3527   1.478       .  S
O2953     Cu2961   2.016       .  S
O2954     Cu2961   2.022       .  S
O2955     Cu2961   2.015       .  S
O2957     Cu2962   2.013       .  S
O2957      C2966   1.278       .  A
O2958      C2965   1.278       .  A
O2959     Cu2962   2.030       .  S
O2959      C2964   1.280       .  A
O2960     Cu2962   2.028   1_545  S
C2964      C3504   1.488       .  S
C2965      C3494   1.482       .  S
C2966      C3484   1.487       .  S
O2967     Cu2975   2.030       .  S
O2967      C2977   1.280       .  A
O2968     Cu2975   2.029       .  S
O2968      C2978   1.280       .  A
O2969     Cu2975   2.019       .  S
O2969      C2979   1.279       .  A
O2970     Cu2975   2.013       .  S
O2970      C2980   1.278       .  A
O2971     Cu2976   2.012       .  S
O2972     Cu2976   2.020       .  S
O2973     Cu2976   2.023       .  S
O2974     Cu2976   2.028       .  S
C2977      C3474   1.495       .  S
C2979      C3487   1.486       .  S
C2980      C3497   1.481       .  S
O2981     Cu2989   2.015       .  S
O2981      C2991   1.274       .  A
O2982     Cu2989   2.029       .  S
O2982      C2992   1.280       .  A
O2983     Cu2989   2.026   1_565  S
O2983      C2993   1.280       .  A
O2984      C2994   1.280       .  A
O2985      C2994   1.276       .  A
O2986     Cu2990   2.008   1_565  S
O2986      C2993   1.277       .  A
O2987     Cu2990   2.060       .  S
O2987      C2992   1.284       .  A
O2988     Cu2990   2.053       .  S
O2988      C2991   1.287       .  A
Cu2989    Cu2990   2.367       .  S
C2992      C3464   1.516       .  S
C2993      C3447   1.484       .  S
C2994      C3457   1.480       .  S
O2995     Cu3003   2.010       .  S
O2995      C3005   1.277       .  A
O2996     Cu3003   2.023       .  S
O2996      C3006   1.279       .  A
O2997     Cu3003   2.043       .  S
O2997      C3007   1.282       .  A
O2998     Cu3003   2.054       .  S
O2998      C3008   1.282       .  A
O2999     Cu3004   2.000       .  S
O2999      C3008   1.274       .  A
O3000     Cu3004   2.001       .  S
O3000      C3007   1.277       .  A
O3001     Cu3004   2.016       .  S
O3001      C3006   1.278       .  A
O3002     Cu3004   2.024       .  S
O3002      C3005   1.279       .  A
Cu3003    Cu3004   2.362       .  S
C3005      C3454   1.480       .  S
C3006      C3444   1.488       .  S
C3008      C3434   1.521       .  S
O3009      C3019   1.278       .  A
O3010     Cu3017   2.012       .  S
O3010      C3020   1.278       .  A
O3011     Cu3017   2.030       .  S
O3011      C3021   1.280       .  A
O3012     Cu3017   2.038       .  S
O3012      C3022   1.281       .  A
O3016     Cu3018   2.011       .  S
C3019      C3404   1.481       .  S
C3020      C3414   1.485       .  S
O3023     Cu3031   2.020       .  S
O3023      C3033   1.279       .  A
O3024     Cu3031   2.015       .  S
O3024      C3034   1.279       .  A
O3025      C3035   1.279       .  A
O3026     Cu3031   2.017       .  S
O3026      C3036   1.278       .  A
O3027     Cu3032   2.008       .  S
O3027      C3036   1.278       .  A
O3028      C3035   1.279       .  A
O3029     Cu3032   2.042       .  S
O3029      C3034   1.281       .  A
O3030     Cu3032   2.040       .  S
O3030      C3033   1.282       .  A
Cu3031    Cu3032   2.370       .  S
C3033      C3397   1.502       .  S
C3034      C3090   1.482       .  S
C3035      C3374   1.485       .  S
C3036      C3387   1.479       .  S
O3037     Cu3045   2.017       .  S
O3038     Cu3045   2.011       .  S
O3039     Cu3045   2.009       .  S
O3040     Cu3045   2.015       .  S
O3041     Cu3046   2.016       .  S
O3041      C3050   1.279       .  A
O3042     Cu3046   2.008       .  S
O3042      C3049   1.277       .  A
O3043     Cu3046   2.037       .  S
O3043      C3048   1.281       .  A
O3044     Cu3046   2.036       .  S
O3044      C3047   1.281       .  A
C3047      C3364   1.494       .  S
C3048      C3104   1.475       .  S
C3049      C3407   1.479       .  S
C3050      C3417   1.487       .  S
O3051     Cu3059   2.034       .  S
O3051      C3061   1.281       .  A
O3052     Cu3059   2.034       .  S
O3052      C3062   1.280       .  A
O3053     Cu3059   2.014       .  S
O3053      C3063   1.278       .  A
O3054     Cu3059   2.007       .  S
O3054      C3064   1.277       .  A
O3055     Cu3060   2.024       .  S
O3055      C3064   1.279       .  A
O3056     Cu3060   2.020       .  S
O3056      C3063   1.280       .  A
O3057     Cu3060   2.002       .  S
O3057      C3062   1.277       .  A
O3058     Cu3060   2.011       .  S
O3058      C3061   1.277       .  A
Cu3059    Cu3060   2.371       .  S
C3061      C3354   1.496       .  S
C3062      C3118   1.474       .  S
C3063      C3377   1.485       .  S
C3064      C3384   1.480       .  S
O3065     Cu3073   2.016   1_455  S
O3066     Cu3073   2.010       .  S
O3067     Cu3073   2.014       .  S
O3069      C3078   1.277       .  A
O3070     Cu3074   2.007       .  S
O3070      C3077   1.277       .  A
O3071     Cu3074   2.030       .  S
O3071      C3076   1.280   1_655  A
O3072     Cu3074   2.036   1_455  S
O3072      C3075   1.281       .  A
C3075      C3587   1.505       .  S
C3077      C3334   1.493       .  S
C3078      C3344   1.484       .  S
O3079     Cu3087   2.053       .  S
O3079      C3089   1.284       .  A
O3080     Cu3087   2.050       .  S
O3080      C3090   1.283       .  A
O3081      C3091   1.276       .  A
O3082     Cu3087   2.006       .  S
O3082      C3092   1.276       .  A
O3083     Cu3088   2.015       .  S
O3083      C3092   1.279       .  A
O3084      C3091   1.280       .  A
O3085     Cu3088   2.008       .  S
O3085      C3090   1.277       .  A
O3086     Cu3088   2.010       .  S
O3086      C3089   1.277       .  A
Cu3087    Cu3088   2.367       .  S
C3089      C3554   1.507       .  S
C3091      C3314   1.486       .  S
C3092      C3324   1.479       .  S
O3093     Cu3101   2.039       .  S
O3093      C3103   1.281       .  A
O3094     Cu3101   2.034       .  S
O3094      C3104   1.280       .  A
O3095     Cu3101   1.996       .  S
O3095      C3105   1.276       .  A
O3096     Cu3101   1.998       .  S
O3096      C3106   1.276       .  A
O3097     Cu3102   2.021       .  S
O3098     Cu3102   2.031       .  S
O3099     Cu3102   2.011       .  S
O3100     Cu3102   2.019       .  S
C3103      C3547   1.515       .  S
C3105      C3337   1.489       .  S
C3106      C3347   1.484       .  S
O3107     Cu3115   2.005       .  S
O3107      C3117   1.277       .  A
O3108     Cu3115   2.002       .  S
O3108      C3118   1.277       .  A
O3109     Cu3115   2.018       .  S
O3109      C3119   1.279       .  A
O3110     Cu3115   2.008       .  S
O3110      C3120   1.278       .  A
O3111     Cu3116   2.009       .  S
O3111      C3120   1.277       .  A
O3112     Cu3116   2.014       .  S
O3112      C3119   1.278       .  A
O3113     Cu3116   2.033       .  S
O3113      C3118   1.280       .  A
O3114     Cu3116   2.029       .  S
O3114      C3117   1.281       .  A
Cu3115    Cu3116   2.371       .  S
C3117      C3517   1.491       .  S
C3119      C3317   1.484       .  S
C3120      C3327   1.479       .  S
O3121     Cu3129   2.045       .  S
O3122     Cu3129   2.046       .  S
O3123     Cu3129   2.012       .  S
O3125      C3134   1.278       .  A
O3126     Cu3130   2.027       .  S
O3126      C3133   1.281       .  A
O3127     Cu3130   2.027       .  S
O3127      C3132   1.279       .  A
O3128     Cu3130   2.017       .  S
O3128      C3131   1.278       .  A
C3131      C3424   1.493       .  S
C3133      C3307   1.493       .  S
C3134      C3297   1.491       .  S
O3135     Cu3143   2.034       .  S
O3135      C3145   1.280       .  A
O3136     Cu3143   2.034       .  S
O3136      C3146   1.280       .  A
O3137     Cu3143   2.012       .  S
O3137      C3147   1.278       .  A
O3138      C3148   1.279       .  A
O3139      C3148   1.278       .  A
O3140     Cu3144   2.014       .  S
O3140      C3147   1.278       .  A
O3141     Cu3144   2.024       .  S
O3141      C3146   1.280       .  A
O3142     Cu3144   2.023       .  S
O3142      C3145   1.279       .  A
Cu3143    Cu3144   2.370       .  S
C3146      C3394   1.501       .  S
C3147      C3287   1.480       .  S
C3148      C3274   1.485       .  S
O3149     Cu3157   2.012       .  S
O3149      C3159   1.278       .  A
O3150     Cu3157   2.008       .  S
O3150      C3160   1.276       .  A
O3151     Cu3157   2.027       .  S
O3151      C3161   1.280       .  A
O3152     Cu3157   2.019       .  S
O3153     Cu3158   2.038       .  S
O3153      C3162   1.282       .  A
O3154     Cu3158   2.043       .  S
O3155     Cu3158   2.009       .  S
O3156     Cu3158   2.013       .  S
C3159      C3304   1.492       .  S
C3160      C3294   1.491       .  S
C3162      C3367   1.492       .  S
O3163     Cu3171   2.030       .  S
O3163      C3173   1.280       .  A
O3164     Cu3171   2.028       .  S
O3164      C3174   1.280       .  A
O3165     Cu3171   2.014       .  S
O3165      C3175   1.278       .  A
O3166     Cu3171   2.000       .  S
O3166      C3176   1.277       .  A
O3167     Cu3172   2.021       .  S
O3167      C3176   1.279       .  A
O3168     Cu3172   2.024       .  S
O3168      C3175   1.280       .  A
O3169     Cu3172   2.018       .  S
O3169      C3174   1.279       .  A
O3170     Cu3172   2.020       .  S
O3170      C3173   1.279       .  A
Cu3171    Cu3172   2.370       .  S
C3174      C3357   1.496       .  S
C3175      C3277   1.487       .  S
C3176      C3284   1.479       .  S
O3177     Cu3185   2.054       .  S
O3177      C3187   1.283       .  A
O3178     Cu3185   2.045       .  S
O3179     Cu3185   2.004       .  S
O3179      C3189   1.277       .  A
O3180      C3190   1.277       .  A
O3181     Cu3186   2.025       .  S
O3183     Cu3186   2.013       .  S
O3184     Cu3186   2.010       .  S
C3188      C3507   1.489       .  S
C3189      C3267   1.486       .  S
C3190      C3254   1.486       .  S
O3191     Cu3199   2.049       .  S
O3191      C3201   1.282       .  A
O3192     Cu3199   2.043       .  S
O3192      C3202   1.282       .  A
O3193     Cu3199   2.011       .  S
O3193      C3203   1.277       .  A
O3194     Cu3199   2.013       .  S
O3194      C3204   1.278       .  A
O3195     Cu3200   2.020       .  S
O3196     Cu3200   2.017       .  S
O3197     Cu3200   2.011       .  S
O3198     Cu3200   2.008       .  S
C3202      C3477   1.493       .  S
C3203      C3257   1.483       .  S
C3204      C3264   1.488       .  S
O3205      C3215   1.277       .  A
O3206     Cu3213   2.006   1_565  S
O3206      C3216   1.277       .  A
O3207     Cu3213   2.039       .  S
O3207      C3217   1.281       .  A
O3208     Cu3213   2.046       .  S
O3208      C3218   1.282       .  A
O3209     Cu3214   2.043       .  S
O3210      C3217   1.280       .  A
O3211      C3216   1.279       .  A
O3212     Cu3214   2.019       .  S
O3212      C3215   1.279       .  A
C3215      C3247   1.482       .  S
C3216      C3234   1.481       .  S
C3218      C3467   1.512       .  S
O3219     Cu3227   2.017       .  S
O3219      C3229   1.278       .  A
O3220     Cu3227   2.018       .  S
O3220      C3230   1.278       .  A
O3221     Cu3227   2.011       .  S
O3221      C3231   1.277       .  A
O3222     Cu3227   2.021       .  S
O3222      C3232   1.279       .  A
O3223     Cu3228   2.013       .  S
O3223      C3232   1.278       .  A
O3224     Cu3228   2.022       .  S
O3224      C3231   1.279       .  A
O3225     Cu3228   2.044       .  S
O3225      C3230   1.280       .  A
O3226     Cu3228   2.038       .  S
O3226      C3229   1.281       .  A
Cu3227    Cu3228   2.363       .  S
C3230      C3437   1.522       .  S
C3231      C3237   1.484       .  S
C3232      C3244   1.485       .  S
C3233      C3234   1.411       .  A
C3233      C3238   1.409       .  A
C3233     Br3240   1.932       .  S
C3234      C3235   1.411       .  A
C3235      C3236   1.411       .  A
C3235     Br3242   1.932       .  S
C3236      C3237   1.414       .  A
C3236     Br3241   1.932       .  S
C3237      C3238   1.411       .  A
C3238     Br3239   1.930       .  S
C3243      C3244   1.412       .  A
C3243      C3248   1.410       .  A
C3243     Br3250   1.927       .  S
C3244      C3245   1.413       .  A
C3245      C3246   1.410       .  A
C3245     Br3252   1.933       .  S
C3246      C3247   1.412       .  A
C3246     Br3251   1.932       .  S
C3247      C3248   1.411       .  A
C3248     Br3249   1.933       .  S
C3253      C3254   1.413       .  A
C3253      C3258   1.410       .  A
C3253     Br3260   1.931       .  S
C3255      C3256   1.410       .  A
C3255     Br3262   1.933       .  S
C3256     Br3261   1.933       .  S
C3257      C3258   1.412       .  A
C3258     Br3259   1.932       .  S
C3263      C3268   1.410       .  A
C3263     Br3270   1.931       .  S
C3264      C3265   1.413       .  A
C3265      C3266   1.411       .  A
C3265     Br3272   1.932       .  S
C3266      C3267   1.413       .  A
C3266     Br3271   1.933       .  S
C3268     Br3269   1.933       .  S
C3273      C3274   1.413       .  A
C3273      C3278   1.412       .  A
C3273     Br3280   1.933       .  S
C3274      C3275   1.412       .  A
C3275      C3276   1.410       .  A
C3275     Br3282   1.932       .  S
C3276      C3277   1.414       .  A
C3276     Br3281   1.932       .  S
C3277      C3278   1.413       .  A
C3278     Br3279   1.932       .  S
C3283      C3284   1.411       .  A
C3283      C3288   1.406       .  A
C3283     Br3290   1.932       .  S
C3284      C3285   1.412       .  A
C3285      C3286   1.411       .  A
C3285     Br3292   1.931       .  S
C3286      C3287   1.412       .  A
C3286     Br3291   1.931       .  S
C3287      C3288   1.411       .  A
C3288     Br3289   1.932       .  S
C3293      C3298   1.405       .  A
C3293     Br3300   1.929       .  S
C3294      C3295   1.418       .  A
C3295      C3296   1.414       .  A
C3295     Br3302   1.935       .  S
C3296      C3297   1.416       .  A
C3296     Br3301   1.934       .  S
C3298     Br3299   1.927       .  S
C3303      C3304   1.415       .  A
C3303      C3308   1.412       .  A
C3303     Br3310   1.932       .  S
C3305      C3306   1.409       .  A
C3305     Br3312   1.933       .  S
C3306     Br3311   1.932       .  S
C3307      C3308   1.416       .  A
C3308     Br3309   1.930       .  S
C3313      C3314   1.413       .  A
C3313      C3318   1.411       .  A
C3313     Br3320   1.932       .  S
C3314      C3315   1.414       .  A
C3315      C3316   1.410       .  A
C3315     Br3322   1.933       .  S
C3316      C3317   1.412       .  A
C3316     Br3321   1.932       .  S
C3317      C3318   1.412       .  A
C3318     Br3319   1.932       .  S
C3323      C3324   1.412       .  A
C3323      C3328   1.409       .  A
C3323     Br3330   1.931       .  S
C3324      C3325   1.411       .  A
C3325      C3326   1.407       .  A
C3325     Br3332   1.933       .  S
C3326      C3327   1.412       .  A
C3326     Br3331   1.933       .  S
C3327      C3328   1.412       .  A
C3328     Br3329   1.931       .  S
C3333      C3334   1.417       .  A
C3333      C3338   1.409       .  A
C3333     Br3340   1.938       .  S
C3335      C3336   1.409       .  A
C3335     Br3342   1.929       .  S
C3336     Br3341   1.929       .  S
C3337      C3338   1.416       .  A
C3338     Br3339   1.939       .  S
C3343      C3348   1.409       .  A
C3343     Br3350   1.932       .  S
C3344      C3345   1.412       .  A
C3345      C3346   1.406       .  A
C3345     Br3352   1.929       .  S
C3346      C3347   1.414       .  A
C3346     Br3351   1.931       .  S
C3348     Br3349   1.930       .  S
C3353      C3354   1.416       .  A
C3353      C3358   1.413       .  A
C3353     Br3360   1.934       .  S
C3354      C3355   1.414       .  A
C3355      C3356   1.413       .  A
C3355     Br3362   1.927       .  S
C3356      C3357   1.414   1_554  A
C3356     Br3361   1.929   1_554  S
C3357      C3358   1.415   1_556  A
C3358     Br3359   1.934   1_554  S
C3363      C3368   1.412       .  A
C3363     Br3370   1.930       .  S
C3364      C3365   1.413       .  A
C3365      C3366   1.414       .  A
C3365     Br3372   1.925       .  S
C3366      C3367   1.413   1_554  A
C3366     Br3371   1.929   1_554  S
C3368     Br3369   1.930   1_554  S
C3373      C3374   1.412       .  A
C3373      C3378   1.410       .  A
C3373     Br3380   1.932       .  S
C3374      C3375   1.413       .  A
C3375      C3376   1.411       .  A
C3375     Br3382   1.932       .  S
C3376      C3377   1.413       .  A
C3376     Br3381   1.932       .  S
C3377      C3378   1.412       .  A
C3378     Br3379   1.932       .  S
C3383      C3384   1.411       .  A
C3383      C3388   1.412       .  A
C3383     Br3390   1.929       .  S
C3384      C3385   1.410       .  A
C3385      C3386   1.406       .  A
C3385     Br3392   1.927       .  S
C3386      C3387   1.409       .  A
C3386     Br3391   1.931       .  S
C3387      C3388   1.412       .  A
C3388     Br3389   1.930       .  S
C3393      C3398   1.415       .  A
C3393     Br3400   1.926   1_554  S
C3394      C3395   1.415   1_556  A
C3395      C3396   1.415       .  A
C3395     Br3402   1.934   1_554  S
C3396      C3397   1.417       .  A
C3396     Br3401   1.933       .  S
C3398     Br3399   1.929       .  S
C3403      C3404   1.410       .  A
C3403      C3408   1.407       .  A
C3403     Br3410   1.928       .  S
C3405      C3406   1.410       .  A
C3405     Br3412   1.933       .  S
C3406     Br3411   1.933       .  S
C3407      C3408   1.409       .  A
C3408     Br3409   1.925       .  S
C3413      C3418   1.410       .  A
C3413     Br3420   1.934       .  S
C3414      C3415   1.412       .  A
C3415      C3416   1.411       .  A
C3415     Br3422   1.932       .  S
C3416      C3417   1.414       .  A
C3416     Br3421   1.932       .  S
C3418     Br3419   1.933       .  S
C3423      C3424   1.413   1_554  A
C3423      C3428   1.414       .  A
C3423     Br3430   1.931   1_554  S
C3425      C3426   1.416       .  A
C3425     Br3432   1.928   1_554  S
C3426     Br3431   1.928       .  S
C3427      C3428   1.414       .  A
C3428     Br3429   1.931       .  S
C3433      C3434   1.424       .  A
C3433      C3438   1.423       .  A
C3433     Br3440   1.939       .  S
C3434      C3435   1.427       .  A
C3435      C3436   1.416       .  A
C3435     Br3442   1.947       .  S
C3436      C3437   1.424       .  A
C3436     Br3441   1.944       .  S
C3437      C3438   1.426       .  A
C3438     Br3439   1.938       .  S
C3443      C3444   1.413       .  A
C3443      C3448   1.409       .  A
C3443     Br3450   1.930       .  S
C3444      C3445   1.415       .  A
C3445      C3446   1.413       .  A
C3445     Br3452   1.932       .  S
C3446      C3447   1.412       .  A
C3446     Br3451   1.932       .  S
C3447      C3448   1.411       .  A
C3448     Br3449   1.933       .  S
C3453      C3454   1.410       .  A
C3453      C3458   1.410       .  A
C3453     Br3460   1.931       .  S
C3454      C3455   1.410       .  A
C3455      C3456   1.409       .  A
C3455     Br3462   1.926       .  S
C3456      C3457   1.409       .  A
C3456     Br3461   1.929       .  S
C3457      C3458   1.412       .  A
C3458     Br3459   1.930       .  S
C3463      C3464   1.419   1_565  A
C3463      C3468   1.419       .  A
C3463     Br3470   1.934       .  S
C3465      C3466   1.422       .  A
C3465     Br3472   1.929       .  S
C3466     Br3471   1.930       .  S
C3467      C3468   1.418   1_545  A
C3468     Br3469   1.933       .  S
C3473      C3478   1.414       .  A
C3473     Br3480   1.932       .  S
C3474      C3475   1.415       .  A
C3475      C3476   1.415       .  A
C3475     Br3482   1.931       .  S
C3476      C3477   1.412       .  A
C3476     Br3481   1.930       .  S
C3478     Br3479   1.933       .  S
C3483      C3484   1.413       .  A
C3483      C3488   1.410       .  A
C3483     Br3490   1.931       .  S
C3485      C3486   1.413       .  A
C3485     Br3492   1.932   1_455  S
C3486     Br3491   1.932       .  S
C3487      C3488   1.411       .  A
C3488     Br3489   1.931       .  S
C3493      C3498   1.409       .  A
C3493     Br3500   1.933       .  S
C3494      C3495   1.412       .  A
C3495      C3496   1.410       .  A
C3495     Br3502   1.932       .  S
C3496      C3497   1.412       .  A
C3496     Br3501   1.932       .  S
C3498     Br3499   1.933       .  S
C3503      C3508   1.413       .  A
C3503     Br3510   1.931       .  S
C3505      C3506   1.414       .  A
C3505     Br3512   1.930       .  S
C3506     Br3511   1.930       .  S
C3508     Br3509   1.930       .  S
C3513      C3514   1.415       .  A
C3513      C3518   1.412       .  A
C3513     Br3520   1.933       .  S
C3514      C3515   1.412       .  A
C3515      C3516   1.411       .  A
C3515     Br3522   1.927       .  S
C3516      C3517   1.414       .  A
C3516     Br3521   1.933       .  S
C3517      C3518   1.415       .  A
C3518     Br3519   1.934       .  S
C3523      C3524   1.415       .  A
C3523      C3528   1.405       .  A
C3523     Br3530   1.937       .  S
C3524      C3525   1.413       .  A
C3525      C3526   1.408       .  A
C3525     Br3532   1.934       .  S
C3526      C3527   1.412       .  A
C3526     Br3531   1.934       .  S
C3527      C3528   1.412       .  A
C3528     Br3529   1.937       .  S
C3533      C3534   1.421       .  A
C3533      C3538   1.414       .  A
C3533     Br3540   1.941       .  S
C3534      C3535   1.420       .  A
C3535      C3536   1.412       .  A
C3535     Br3542   1.941       .  S
C3536      C3537   1.422       .  A
C3536     Br3541   1.941       .  S
C3537      C3538   1.423       .  A
C3538     Br3539   1.941       .  S
C3543      C3544   1.410       .  A
C3543      C3548   1.415       .  A
C3543     Br3550   1.932       .  S
C3545      C3546   1.416       .  A
C3545     Br3552   1.929       .  S
C3546     Br3551   1.936       .  S
C3547      C3548   1.425       .  A
C3548     Br3549   1.933       .  S
C3553      C3554   1.419       .  A
C3553      C3558   1.417       .  A
C3553     Br3560   1.931       .  S
C3555      C3556   1.415   1_655  A
C3555     Br3562   1.933       .  S
C3556     Br3561   1.932   1_455  S
C3557      C3558   1.414       .  A
C3558     Br3559   1.933       .  S
C3563      C3568   1.407       .  A
C3563     Br3570   1.936   1_455  S
C3564      C3565   1.415       .  A
C3565      C3566   1.409       .  A
C3565     Br3572   1.935       .  S
C3566     Br3571   1.935       .  S
C3567      C3568   1.414       .  A
C3568     Br3569   1.936   1_455  S
C3573      C3578   1.417       .  A
C3573     Br3580   1.932       .  S
C3574      C3575   1.415       .  A
C3575      C3576   1.410       .  A
C3575     Br3582   1.936   1_455  S
C3576     Br3581   1.935   1_455  S
C3577      C3578   1.415       .  A
C3578     Br3579   1.932       .  S
C3583      C3588   1.413       .  A
C3583     Br3590   1.935       .  S
C3585      C3586   1.414   1_455  A
C3585     Br3592   1.934   1_455  S
C3586     Br3591   1.935       .  S
C3588     Br3589   1.927       .  S
C3593      C3594   1.412       .  A
C3593      C3598   1.410       .  A
C3593     Br3600   1.932       .  S
C3594      C3595   1.412       .  A
C3595      C3596   1.409       .  A
C3595     Br3602   1.933       .  S
C3596      C3597   1.412       .  A
C3596     Br3601   1.932       .  S
C3597      C3598   1.412       .  A
C3598     Br3599   1.932       .  S
C3603      C3604   1.412       .  A
C3603      C3608   1.408       .  A
C3603     Br3610   1.935       .  S
C3604      C3605   1.413       .  A
C3605      C3606   1.410       .  A
C3605     Br3612   1.933       .  S
C3606      C3607   1.413       .  A
C3606     Br3611   1.932       .  S
C3607      C3608   1.413       .  A
C3608     Br3609   1.934       .  S
C3613      C3618   1.412       .  A
C3613     Br3620   1.934       .  S
C3614      C3615   1.410       .  A
C3615      C3616   1.410       .  A
C3615     Br3622   1.927       .  S
C3616      C3617   1.409       .  A
C3616     Br3621   1.928       .  S
C3618     Br3619   1.934       .  S
C3623      C3628   1.411       .  A
C3623     Br3630   1.931       .  S
C3624      C3625   1.414       .  A
C3625      C3626   1.412       .  A
C3625     Br3632   1.932       .  S
C3626      C3627   1.413       .  A
C3626     Br3631   1.932       .  S
C3628     Br3629   1.932       .  S
C3633      C3634   1.414       .  A
C3633      C3638   1.413       .  A
C3633     Br3640   1.934       .  S
C3634      C3635   1.413       .  A
C3635      C3636   1.415       .  A
C3635     Br3642   1.932       .  S
C3636      C3637   1.416       .  A
C3636     Br3641   1.932       .  S
C3637      C3638   1.417       .  A
C3638     Br3639   1.934       .  S
C3643      C3644   1.413       .  A
C3643      C3648   1.410       .  A
C3643     Br3650   1.935       .  S
C3644      C3645   1.412       .  A
C3645      C3646   1.410       .  A
C3645     Br3652   1.933       .  S
C3646      C3647   1.415       .  A
C3646     Br3651   1.934       .  S
C3647      C3648   1.415       .  A
C3648     Br3649   1.934       .  S
C3653      C3654   1.413       .  A
C3653      C3658   1.411       .  A
C3653     Br3660   1.932       .  S
C3654      C3655   1.412       .  A
C3655      C3656   1.412       .  A
C3655     Br3662   1.931       .  S
C3656      C3657   1.413       .  A
C3656     Br3661   1.932       .  S
C3657      C3658   1.412       .  A
C3658     Br3659   1.932       .  S
C3663      C3664   1.414       .  A
C3663      C3668   1.418       .  A
C3663     Br3670   1.930       .  S
C3665      C3666   1.416       .  A
C3665     Br3672   1.933       .  S
C3666     Br3671   1.935       .  S
C3667      C3668   1.419       .  A
C3668     Br3669   1.932       .  S
C3673      C3678   1.415       .  A
C3673     Br3680   1.933       .  S
C3674      C3675   1.415   1_455  A
C3675      C3676   1.416       .  A
C3675     Br3682   1.927       .  S
C3676     Br3681   1.933       .  S
C3677      C3678   1.416       .  A
C3678     Br3679   1.934       .  S
C3683      C3684   1.412       .  A
C3683      C3688   1.405       .  A
C3683     Br3690   1.936   1_455  S
C3685      C3686   1.408       .  A
C3685     Br3692   1.934       .  S
C3686     Br3691   1.933       .  S
C3687      C3688   1.413       .  A
C3688     Br3689   1.935   1_455  S
C3693      C3694   1.419       .  A
C3693      C3698   1.412   1_455  A
C3693     Br3700   1.938   1_455  S
C3695      C3696   1.412       .  A
C3695     Br3702   1.940       .  S
C3696     Br3701   1.939       .  S
C3697      C3698   1.420   1_455  A
C3698     Br3699   1.939       .  S
C3703      C3708   1.415       .  A
C3703     Br3710   1.934       .  S
C3705      C3706   1.419   1_655  A
C3705     Br3712   1.933       .  S
C3706     Br3711   1.928   1_455  S
C3708     Br3709   1.935       .  S
