geometry optimzed in LAMMPS
_audit_creation_date              2020-11-30 
_audit_creation_method            'lammps2cif' 
_symmetry_space_group_name_H-M    'P1' 
_symmetry_Int_Tables_number       1 
_symmetry_cell_setting            triclinic 
loop_ 
_symmetry_equiv_pos_as_xyz 
  x,y,z 
_cell_length_a                    50.51272481 
_cell_length_b                    51.88282515771087 
_cell_length_c                    53.906292363789866 
_cell_angle_alpha                 90.70581797148061 
_cell_angle_beta                  88.44963324716213 
_cell_angle_gamma                 117.86095457457036 
loop_ 
_atom_site_label 
_atom_site_type_symbol 
_atom_site_fract_x 
_atom_site_fract_y 
_atom_site_fract_z 
_atom_site_charge 
O1          O  0.35984733  0.12053357  0.02680501    -0.80400
O2          O  0.36691341  0.23147540  0.97942989    -0.65100
O3          O  0.35169888  0.16967344  0.02529445    -1.11700
C4          C  0.27624988  0.11243831  0.96722159     1.06500
O5          O  0.31815912  0.21603947  0.98097565    -0.78300
O6          O  0.27277719  0.16654541  0.99715374    -0.65800
Ni7        Ni  0.38206927  0.16075922  0.03558855     1.34900
C8          C  0.27180321  0.15645089  0.01858779     0.85300
O9          O  0.39402926  0.22934564  0.02233194    -0.78800
O10         O  0.40663954  0.20032546  0.04472509    -0.89100
C11         C  0.34429731  0.23512181  0.97440303     0.84800
O12         O  0.40302822  0.16639194  0.00492070    -0.67300
O13         O  0.27991091  0.13661209  0.95812443    -0.86600
C14         C  0.40498583  0.18019581  0.98521348     0.85700
C15         C  0.41007759  0.22532625  0.03843725     1.07200
H16         H  0.33988544  0.16566279  0.96959931     0.39000
O17         O  0.33056197  0.17041096  0.98355619    -1.09200
O18         O  0.29026972  0.14753221  0.02531585    -0.65900
Ni19       Ni  0.31986899  0.13987515  0.00692382     1.26300
O20         O  0.39116704  0.19510782  0.98227152    -0.66100
O21         O  0.28919242  0.11065730  0.98671783    -0.78400
C22         C  0.33365076  0.10366702  0.03475515     0.85000
O23         O  0.31273633  0.11011109  0.03090837    -0.65600
Ni24       Ni  0.29998173  0.17643034  0.96964844     1.27400
Ni25       Ni  0.36184141  0.20091879  0.00234777     1.26100
H26         H  0.34329623  0.17398564  0.04011745     0.39600
O27         O  0.39909820  0.19421904  0.51658880    -0.80400
O28         O  0.29444686  0.19964478  0.46861539    -0.65100
O29         O  0.34151521  0.18491061  0.51574583    -1.11700
C30         C  0.31936416  0.10308103  0.46323675     1.06500
O31         O  0.26228980  0.15475381  0.47773727    -0.78300
O32         O  0.26761399  0.11029218  0.49648252    -0.65800
Ni33       Ni  0.37784977  0.21455460  0.52776432     1.34900
C34         C  0.28030491  0.10857605  0.51583972     0.85300
O35         O  0.32201229  0.22755160  0.51127468    -0.78800
O36         O  0.35748827  0.23561003  0.53941792    -0.89100
C37         C  0.26796690  0.17847567  0.46712706     0.84800
O38         O  0.39240153  0.23877067  0.49916686    -0.67300
O39         O  0.29780042  0.10733926  0.45595443    -0.86600
C40         C  0.38238836  0.23828651  0.47778366     0.85700
C41         C  0.33658349  0.23994030  0.53081267     1.07200
H42         H  0.33065554  0.16774038  0.46014149     0.39000
O43         O  0.31884673  0.16126505  0.47533702    -1.09200
O44         O  0.30817804  0.12494890  0.51931216    -0.65900
Ni45       Ni  0.34130679  0.15222490  0.49820601     1.26300
O46         O  0.35539033  0.22063471  0.47196085    -0.66100
O47         O  0.33853872  0.11923327  0.47922569    -0.78400
C48         C  0.39262495  0.16961303  0.52584829     0.85000
O49         O  0.36754852  0.14772223  0.52116459    -0.65600
Ni50       Ni  0.28078373  0.13180745  0.46654811     1.27400
Ni51       Ni  0.32014200  0.19468186  0.49225248     1.26100
H52         H  0.32842726  0.17735899  0.53017613     0.39600
N53         N  0.37512227  0.00060596  0.71800407    -0.36100
N54         N  0.39623020  0.04545118  0.75448295    -0.56600
N55         N  0.38345273  0.00372742  0.79316999    -0.36100
N56         N  0.36067723  0.45855036  0.75717798    -0.56600
C57         C  0.39528687  0.02414864  0.70520377     0.27500
C58         C  0.37405579  0.47680961  0.70672898     0.27500
C59         C  0.40435700  0.02890080  0.80282956     0.27500
C60         C  0.38644058  0.48183803  0.80382536     0.27500
C61         C  0.39575154  0.06047705  0.73450192     0.36100
C62         C  0.39784389  0.06175252  0.77453351     0.36100
C63         C  0.34439216  0.44142681  0.73862751     0.36100
C64         C  0.35042010  0.44300594  0.77824586     0.36100
C65         C  0.40770257  0.01523615  0.68579016    -0.21400
C66         C  0.39416661  0.48522461  0.68670407    -0.21400
C67         C  0.42132125  0.02311310  0.81953623    -0.21400
C68         C  0.41017376  0.49326390  0.81995241    -0.21400
C69         C  0.39548362  0.08604889  0.74187286    -0.22400
C70         C  0.39650397  0.08672151  0.76745805    -0.22400
C71         C  0.32234378  0.41514779  0.74804031    -0.22400
C72         C  0.32624995  0.41611781  0.77332772    -0.22400
C73         C  0.40102319  0.05307338  0.71031768    -0.17800
C74         C  0.35383647  0.44788568  0.71365589    -0.17800
C75         C  0.36619393  0.45203501  0.80052338    -0.17800
C76         C  0.40685729  0.05654653  0.79762345    -0.17800
H77         H  0.42455944  0.02885795  0.67228884     0.15100
H78         H  0.39855655  0.47122948  0.67405419     0.15100
H79         H  0.43971428  0.03872820  0.83031606     0.15100
H80         H  0.41811070  0.48131986  0.83126344     0.15100
H81         H  0.39626721  0.10311425  0.73005280     0.13400
H82         H  0.39856457  0.10456211  0.77925717     0.13400
H83         H  0.30637909  0.39666316  0.73766217     0.13400
H84         H  0.31370620  0.39862042  0.78633246     0.13400
H85         H  0.36056450  0.00050423  0.73217585     0.26700
H86         H  0.36587524  0.00151133  0.78208173     0.26700
N87         N  0.09872500  0.09238191  0.70919233    -0.36100
N88         N  0.13379651  0.08218875  0.74608606    -0.56600
N89         N  0.10441233  0.09935056  0.78521728    -0.36100
N90         N  0.06635141  0.10589094  0.74847210    -0.56600
C91         C  0.11034086  0.07770141  0.69566669     0.27500
C92         C  0.07520822  0.09101245  0.69667113     0.27500
C93         C  0.12004751  0.09002262  0.79932436     0.27500
C94         C  0.08549204  0.10409770  0.80058471     0.27500
C95         C  0.14884585  0.08134463  0.72526344     0.36100
C96         C  0.15010946  0.08194645  0.76547567     0.36100
C97         C  0.05484611  0.11246642  0.72860362     0.36100
C98         C  0.05765698  0.11601679  0.76865502     0.36100
C99         C  0.09365919  0.06658332  0.67449120    -0.21400
C100        C  0.07206733  0.07564999  0.67480424    -0.21400
C101        C  0.11210295  0.09050881  0.82411756    -0.21400
C102        C  0.09033834  0.09926441  0.82490084    -0.21400
C103        C  0.17546519  0.08169814  0.73150458    -0.22400
C104        C  0.17568715  0.08090050  0.75687967    -0.22400
C105        C  0.03815405  0.12617629  0.73623877    -0.22400
C106        C  0.03992292  0.12838269  0.76157463    -0.22400
C107        C  0.13671830  0.07575067  0.70119417    -0.17800
C108        C  0.05776946  0.10481341  0.70379079    -0.17800
C109        C  0.06452454  0.11346829  0.79351650    -0.17800
C110        C  0.14104667  0.08067566  0.79068499    -0.17800
H111        H  0.09699902  0.05373791  0.65997094     0.15100
H112        H  0.05587079  0.07121902  0.66052607     0.15100
H113        H  0.12098665  0.08503965  0.84010996     0.15100
H114        H  0.07933539  0.10168712  0.84159719     0.15100
H115        H  0.19245064  0.08123357  0.71911659     0.13400
H116        H  0.19298581  0.07981299  0.76742767     0.13400
H117        H  0.02567203  0.13351134  0.72482632     0.13400
H118        H  0.02943513  0.13814709  0.77340674     0.13400
H119        H  0.10849323  0.10562091  0.72442644     0.26700
H120        H  0.10726754  0.10342546  0.76636665     0.26700
N121        N  0.01715257  0.40693570  0.78416565    -0.36100
N122        N  0.46828796  0.38811743  0.74957119    -0.56600
N123        N  0.01210872  0.41168703  0.70953772    -0.36100
N124        N  0.06108947  0.42833332  0.74427892    -0.56600
C125        C  0.49320819  0.38923287  0.79846008     0.27500
C126        C  0.04196119  0.40915166  0.79516025     0.27500
C127        C  0.48703602  0.39568090  0.69661049     0.27500
C128        C  0.03576349  0.41798457  0.69397400     0.27500
C129        C  0.45264591  0.38481456  0.77108341     0.36100
C130        C  0.44984126  0.38586645  0.73100201     0.36100
C131        C  0.07851673  0.44131483  0.76394920     0.36100
C132        C  0.07571423  0.44435503  0.72411359     0.36100
C133        C  0.50270453  0.37970371  0.81861003    -0.21400
C134        C  0.03341258  0.39171061  0.81622423    -0.21400
C135        C  0.49489019  0.39161972  0.67256684    -0.21400
C136        C  0.02569873  0.40571965  0.67090235    -0.21400
C137        C  0.42391607  0.38012032  0.76619288    -0.22400
C138        C  0.42209566  0.38065293  0.74073963    -0.22400
C139        C  0.10407816  0.46608148  0.75622038    -0.22400
C140        C  0.10259084  0.46758455  0.73086951    -0.22400
C141        C  0.46341809  0.38369002  0.79480002    -0.17800
C142        C  0.07185637  0.42964847  0.78833273    -0.17800
C143        C  0.06590093  0.43688996  0.69955127    -0.17800
C144        C  0.45739035  0.38671706  0.70541547    -0.17800
H145        H  0.48895616  0.36578217  0.83359042     0.15100
H146        H  0.04789373  0.38890705  0.82914791     0.15100
H147        H  0.47997031  0.38019614  0.65762491     0.15100
H148        H  0.03912925  0.40734755  0.65442854     0.15100
H149        H  0.40599782  0.37614252  0.77951798     0.13400
H150        H  0.40256717  0.37735383  0.73056760     0.13400
H151        H  0.12207947  0.48132824  0.76753396     0.13400
H152        H  0.11926493  0.48385991  0.71876877     0.13400
H153        H  0.01677046  0.42009950  0.76989808     0.26700
H154        H  0.01311690  0.42101372  0.72690145     0.26700
C155        C  0.47302458  0.16077962  0.59500321     0.02800
C156        C  0.00384179  0.16928842  0.59246443     0.02800
C157        C  0.01744040  0.16023300  0.61035646    -0.17700
C158        C  0.00127087  0.14357581  0.63102396     0.02800
C159        C  0.47061914  0.13650411  0.63411943     0.02800
C160        C  0.45704308  0.14520533  0.61600428    -0.17700
H161        H  0.43337915  0.13900130  0.61787428     0.04800
H162        H  0.04099227  0.16621691  0.60809038     0.04800
C163        C  0.20091045  0.01985693  0.58545677     0.02800
C164        C  0.18301976  0.48903176  0.58454539     0.02800
C165        C  0.16156540  0.47513282  0.60348452    -0.17700
C166        C  0.15689297  0.49082405  0.62277204     0.02800
C167        C  0.17612103  0.02116422  0.62481979     0.02800
C168        C  0.19781011  0.03519674  0.60607779    -0.17700
H169        H  0.21172517  0.05863408  0.60701479     0.04800
H170        H  0.14727315  0.45173770  0.60258811     0.04800
C171        C  0.35135333  0.33052437  0.91472430     0.02800
C172        C  0.33080958  0.34197010  0.91282646     0.02800
C173        C  0.33360349  0.35970954  0.89251149    -0.17700
C174        C  0.35641791  0.36712119  0.87438599     0.02800
C175        C  0.37745510  0.35645762  0.87655198     0.02800
C176        C  0.37466952  0.33848678  0.89680160    -0.17700
H177        H  0.39042608  0.32987362  0.89824085     0.04800
H178        H  0.31799488  0.36851026  0.89103330     0.04800
C179        C  0.31685197  0.33938420  0.59959525     0.02800
C180        C  0.33465296  0.32504686  0.59800269     0.02800
C181        C  0.35724899  0.33179097  0.61548599    -0.17700
C182        C  0.36149988  0.35153884  0.63497186     0.02800
C183        C  0.34068392  0.36262971  0.63826433     0.02800
C184        C  0.31876120  0.35618944  0.62046715    -0.17700
H185        H  0.30285122  0.36465790  0.62265206     0.04800
H186        H  0.37197124  0.32192705  0.61360202     0.04800
C187        C  0.19901560  0.02012132  0.90246121     0.02800
C188        C  0.18900928  0.48966454  0.90075069     0.02800
C189        C  0.17105090  0.47404812  0.88074747    -0.17700
C190        C  0.16286113  0.48777820  0.86239200     0.02800
C191        C  0.17450364  0.01863291  0.86308679     0.02800
C192        C  0.19237120  0.03404061  0.88310799    -0.17700
H193        H  0.20029381  0.05735377  0.88425086     0.04800
H194        H  0.16192665  0.45052291  0.88019477     0.04800
C195        C  0.01285355  0.17789503  0.90929795     0.02800
C196        C  0.48183674  0.16922955  0.90934154     0.02800
C197        C  0.46433276  0.15128504  0.89023435    -0.17700
C198        C  0.47649015  0.14067417  0.87162477     0.02800
C199        C  0.00744020  0.14890958  0.87174383     0.02800
C200        C  0.02509685  0.16731651  0.89058739    -0.17700
H201        H  0.04894018  0.17413823  0.89034238     0.04800
H202        H  0.44062895  0.14507217  0.89014942     0.04800
O203        O  0.10869513  0.34693431  0.48120032    -0.80400
O204        O  0.21862407  0.35221313  0.53117519    -0.65100
O205        O  0.15915762  0.33923157  0.48326611    -1.11700
C206        C  0.09901827  0.25781659  0.53531194     1.06500
O207        O  0.20623866  0.30614617  0.52545170    -0.78300
O208        O  0.15928878  0.26280120  0.50507447    -0.65800
Ni209      Ni  0.15039218  0.36855927  0.47204508     1.34900
C210        C  0.14935099  0.26405759  0.48410353     0.85300
O211        O  0.21934023  0.38042744  0.48824624    -0.78800
O212        O  0.19155084  0.39187345  0.46268984    -0.89100
C213        C  0.22304116  0.33038707  0.53534141     0.84800
O214        O  0.15713572  0.39103115  0.50135025    -0.67300
O215        O  0.12355219  0.26081985  0.54408225    -0.86600
C216        C  0.17093633  0.39327896  0.52118032     0.85700
C217        C  0.21663664  0.39611367  0.47123319     1.07200
H218        H  0.15143088  0.32238598  0.53872770     0.39000
O219        O  0.15744672  0.31519274  0.52415532    -1.09200
O220        O  0.13792349  0.28080233  0.47964210    -0.65900
Ni221      Ni  0.12781496  0.30640889  0.49993778     1.26300
O222        O  0.18169931  0.37606551  0.52645743    -0.66100
O223        O  0.09743318  0.27362259  0.51798825    -0.78400
C224        C  0.09182479  0.32166385  0.47279328     0.85000
O225        O  0.09874151  0.30131881  0.47567723    -0.65600
Ni226      Ni  0.16493267  0.28444194  0.53485839     1.27400
Ni227      Ni  0.18924878  0.34794785  0.50703940     1.26100
H228        H  0.16534004  0.33234604  0.46861268     0.39600
O229        O  0.20041032  0.28896605  0.02009002    -0.80400
O230        O  0.20027559  0.38815810  0.96560178    -0.65100
O231        O  0.18353877  0.33172491  0.01628493    -1.11700
C232        C  0.10343566  0.27275841  0.96517960     1.06500
O233        O  0.15330881  0.37996855  0.96898777    -0.78300
O234        O  0.11456543  0.33689514  0.99905422    -0.65800
Ni235      Ni  0.21508621  0.32837690  0.03127101     1.34900
C236        C  0.11096190  0.32061823  0.01755687     0.85300
O237        O  0.22563253  0.39069971  0.00923593    -0.78800
O238        O  0.23067249  0.36785896  0.04268868    -0.89100
C239        C  0.18034598  0.39598209  0.96174217     0.84800
O240        O  0.24381648  0.34042299  0.00443981    -0.67300
O241        O  0.10339236  0.29705691  0.96165808    -0.86600
C242        C  0.24130164  0.34408975  0.98158623     0.85700
C243        C  0.23525085  0.39085430  0.03090545     1.07200
H244        H  0.16816528  0.32512202  0.95955498     0.39000
O245        O  0.16094144  0.32978906  0.97467728    -1.09200
O246        O  0.12260023  0.30344926  0.01845956    -0.65900
Ni247      Ni  0.15338113  0.29969827  0.99835378     1.26300
O248        O  0.22080694  0.34943037  0.97360516    -0.66100
O249        O  0.12238843  0.26985849  0.97875768    -0.78400
C250        C  0.17505295  0.26871508  0.02695943     0.85000
O251        O  0.15129366  0.27044946  0.02178288    -0.65600
Ni252      Ni  0.12953543  0.33793617  0.96622047     1.27400
Ni253      Ni  0.19351354  0.36032439  0.99124368     1.26100
H254        H  0.17375551  0.33692419  0.02956477     0.39600
N255        N  0.49500246  0.09777522  0.21230747    -0.36100
N256        N  0.44772236  0.07674019  0.25054374    -0.56600
N257        N  0.49160120  0.11045854  0.28635181    -0.36100
N258        N  0.03878387  0.13340751  0.24891014    -0.56600
C259        C  0.47026583  0.08530817  0.19808194     0.27500
C260        C  0.01915520  0.11311391  0.19713205     0.27500
C261        C  0.46601454  0.10212508  0.29974665     0.27500
C262        C  0.01320202  0.13315957  0.29834879     0.27500
C263        C  0.43240869  0.05928463  0.23167869     0.36100
C264        C  0.43186219  0.06425564  0.27152369     0.36100
C265        C  0.05791107  0.13610130  0.22987524     0.36100
C266        C  0.05515769  0.14119727  0.26978139     0.36100
C267        C  0.47883307  0.09296702  0.17354887    -0.21400
C268        C  0.00948632  0.10919367  0.17280354    -0.21400
C269        C  0.47113734  0.12003358  0.32026511    -0.21400
C270        C  0.00098710  0.14005710  0.31914706    -0.21400
C271        C  0.40644826  0.03581430  0.24072307    -0.22400
C272        C  0.40610848  0.03909182  0.26600739    -0.22400
C273        C  0.08678710  0.14733118  0.23883966    -0.22400
C274        C  0.08464726  0.14860186  0.26399331    -0.22400
C275        C  0.44063052  0.06522088  0.20631547    -0.17800
C276        C  0.04968031  0.12894639  0.20463458    -0.17800
C277        C  0.04401726  0.14340303  0.29366631    -0.17800
C278        C  0.43946686  0.07650518  0.29535484    -0.17800
H279        H  0.46471662  0.08646838  0.15752309     0.15100
H280        H  0.02270637  0.11644438  0.15585120     0.15100
H281        H  0.45533243  0.11821915  0.33495248     0.15100
H282        H  0.01283777  0.15647092  0.33298319     0.15100
H283        H  0.38945049  0.01822950  0.23021889     0.13400
H284        H  0.38861373  0.02511879  0.27882503     0.13400
H285        H  0.10785525  0.15435144  0.22895662     0.13400
H286        H  0.10325753  0.15507275  0.27623940     0.13400
H287        H  0.49590833  0.09347962  0.23089948     0.26700
H288        H  0.49514424  0.09792012  0.27275014     0.26700
N289        N  0.40181324  0.40623240  0.28354100    -0.36100
N290        N  0.37027016  0.41672228  0.24463114    -0.56600
N291        N  0.39997421  0.39517228  0.20922141    -0.36100
N292        N  0.43047774  0.38372656  0.24859230    -0.56600
C293        C  0.39260070  0.42392979  0.29527421     0.27500
C294        C  0.42299427  0.40535632  0.29780469     0.27500
C295        C  0.37933755  0.39646151  0.19449542     0.27500
C296        C  0.41236678  0.38072958  0.19634002     0.27500
C297        C  0.35889385  0.42589011  0.26374715     0.36100
C298        C  0.35898923  0.42124209  0.22368538     0.36100
C299        C  0.44022523  0.37772069  0.26968096     0.36100
C300        C  0.44144824  0.37389181  0.22978003     0.36100
C301        C  0.40873622  0.43496994  0.31666997    -0.21400
C302        C  0.42725950  0.42264822  0.31864338    -0.21400
C303        C  0.37834559  0.38225027  0.17227991    -0.21400
C304        C  0.39944505  0.37271354  0.17331244    -0.21400
C305        C  0.33949573  0.43539983  0.25492421    -0.22400
C306        C  0.34123491  0.43443864  0.22968037    -0.22400
C307        C  0.45693486  0.36338855  0.26433652    -0.22400
C308        C  0.45839077  0.36162354  0.23895861    -0.22400
C309        C  0.36833148  0.42859552  0.28853478    -0.17800
C310        C  0.43713054  0.38786993  0.29336206    -0.17800
C311        C  0.43504277  0.37441970  0.20456503    -0.17800
C312        C  0.36279162  0.41181642  0.19958967    -0.17800
H313        H  0.40670370  0.44973139  0.32996558     0.15100
H314        H  0.44193265  0.42606914  0.33392928     0.15100
H315        H  0.36409820  0.37935494  0.15673224     0.15100
H316        H  0.40439468  0.36082247  0.15886284     0.15100
H317        H  0.32584924  0.44304241  0.26513157     0.13400
H318        H  0.32988432  0.44227656  0.21761234     0.13400
H319        H  0.46774447  0.35584725  0.27734672     0.13400
H320        H  0.47000856  0.35181802  0.22856897     0.13400
H321        H  0.39146243  0.39242632  0.26872249     0.26700
H322        H  0.40764395  0.40647125  0.22571285     0.26700
C323        C  0.31438819  0.48022014  0.41207871     0.02800
C324        C  0.33190351  0.01072396  0.41387597     0.02800
C325        C  0.35492632  0.02552670  0.39642870    -0.17700
C326        C  0.35868516  0.01144229  0.37547317     0.02800
C327        C  0.33877289  0.48133887  0.37194342     0.02800
C328        C  0.31772197  0.46603682  0.39084033    -0.17700
H329        H  0.30289795  0.44291043  0.38867895     0.04800
H330        H  0.36868552  0.04892832  0.39823714     0.04800
N331        N  0.10480176  0.49884571  0.29038116    -0.36100
N332        N  0.11485554  0.03996048  0.25003932    -0.56600
N333        N  0.10474594  0.49420990  0.21414457    -0.36100
N334        N  0.09397681  0.45348919  0.25373680    -0.56600
C335        C  0.10513683  0.02162919  0.30339388     0.27500
C336        C  0.09053352  0.47436614  0.30465371     0.27500
C337        C  0.10151588  0.01395308  0.20011566     0.27500
C338        C  0.09005272  0.46806535  0.20272408     0.27500
C339        C  0.12303671  0.05900963  0.26931064     0.36100
C340        C  0.12264113  0.05599408  0.22881701     0.36100
C341        C  0.09517807  0.44002762  0.27460803     0.36100
C342        C  0.09692717  0.43816217  0.23438225     0.36100
C343        C  0.09212273  0.01162006  0.32664846    -0.21400
C344        C  0.08186555  0.48195417  0.32703392    -0.21400
C345        C  0.08438804  0.00015405  0.17971880    -0.21400
C346        C  0.07648430  0.47112079  0.18176140    -0.21400
C347        C  0.13540867  0.08727239  0.26012460    -0.22400
C348        C  0.13533901  0.08532692  0.23462377    -0.22400
C349        C  0.10002845  0.41648115  0.26851250    -0.22400
C350        C  0.10120268  0.41533565  0.24295742    -0.22400
C351        C  0.11721832  0.05118599  0.29495769    -0.17800
C352        C  0.08654513  0.44581962  0.29838812    -0.17800
C353        C  0.09095196  0.44224728  0.20966426    -0.17800
C354        C  0.11576286  0.04430322  0.20441741    -0.17800
H355        H  0.08967779  0.02402127  0.34194853     0.15100
H356        H  0.06959238  0.46793306  0.34241073     0.15100
H357        H  0.07806228  0.00963727  0.16476047     0.15100
H358        H  0.06299116  0.45433634  0.16880313     0.15100
H359        H  0.14301373  0.10731520  0.27056091     0.13400
H360        H  0.14273739  0.10339324  0.22186377     0.13400
H361        H  0.10086177  0.40083719  0.28114756     0.13400
H362        H  0.10330905  0.39873381  0.23200874     0.13400
H363        H  0.11585765  0.50052387  0.27346447     0.26700
H364        H  0.11938076  0.49902857  0.22879449     0.26700
C365        C  0.30466385  0.48032473  0.09640690     0.02800
C366        C  0.31910724  0.01068342  0.10003396     0.02800
C367        C  0.33846449  0.02250020  0.12009132    -0.17700
C368        C  0.34500225  0.00482609  0.13567109     0.02800
C369        C  0.33029904  0.47418546  0.13157672     0.02800
C370        C  0.30967746  0.46244270  0.11268944    -0.17700
H371        H  0.29886450  0.43906469  0.10953549     0.04800
H372        H  0.35032462  0.04597743  0.12242463     0.04800
C373        C  0.17077063  0.17031043  0.40625769     0.02800
C374        C  0.15386394  0.18571681  0.40817489     0.02800
C375        C  0.13272979  0.18116104  0.39010435    -0.17700
C376        C  0.12702330  0.16107369  0.37081562     0.02800
C377        C  0.14257174  0.14422255  0.36914712     0.02800
C378        C  0.16458929  0.14960834  0.38695209    -0.17700
H379        H  0.17689120  0.13720425  0.38605859     0.04800
H380        H  0.12000035  0.19318474  0.39127493     0.04800
C381        C  0.18007806  0.15511546  0.08727920     0.02800
C382        C  0.16691471  0.17395766  0.08848663     0.02800
C383        C  0.14854737  0.17219962  0.10906360    -0.17700
C384        C  0.13990725  0.15022693  0.12716582     0.02800
C385        C  0.14944649  0.12835521  0.12376675     0.02800
C386        C  0.17037697  0.13207293  0.10449326    -0.17700
H387        H  0.17918707  0.11665626  0.10270475     0.04800
H388        H  0.14120456  0.18868735  0.11086699     0.04800
C389        C  0.47558154  0.31933752  0.41028285     0.02800
C390        C  0.00611261  0.32605948  0.40902463     0.02800
C391        C  0.02490614  0.34396810  0.38974530    -0.17700
C392        C  0.01442214  0.35632377  0.37191543     0.02800
C393        C  0.48383649  0.35019600  0.37374491     0.02800
C394        C  0.46538134  0.33259500  0.39327905    -0.17700
H395        H  0.44236594  0.32865249  0.39507964     0.04800
H396        H  0.04830309  0.34898893  0.38905844     0.04800
C397        C  0.03339485  0.32757645  0.09600513     0.02800
C398        C  0.50202564  0.31703061  0.09527934     0.02800
C399        C  0.48823540  0.32753346  0.11260391    -0.17700
C400        C  0.50389623  0.34587078  0.13205102     0.02800
C401        C  0.03488441  0.35472143  0.13421869     0.02800
C402        C  0.04930239  0.34613940  0.11565839    -0.17700
H403        H  0.07329479  0.35407252  0.11642346     0.04800
H404        H  0.46435408  0.32024151  0.11149348     0.04800
C405        C  0.03615465  0.37678040  0.35262737     0.00400
C406        C  0.02946931  0.37219307  0.32727491    -0.11500
C407        C  0.04543368  0.39410998  0.30954957     0.02600
C408        C  0.07064070  0.42055549  0.31647459     0.00300
C409        C  0.07946083  0.42338124  0.34133816    -0.11400
C410        C  0.06189622  0.40261205  0.35943157     0.02500
H411        H  0.51006087  0.35240114  0.32160923     0.15500
H412        H  0.09914047  0.44289837  0.34701761     0.15500
C413        C  0.06926182  0.40959807  0.38516221     0.37100
C414        C  0.03424380  0.38955914  0.28466530     0.37000
N415        N  0.07480513  0.41510122  0.40585961    -0.43200
N416        N  0.52598952  0.38628470  0.26449826    -0.43200
C417        C  0.08132443  0.41770658  0.19122927     0.00400
C418        C  0.05775224  0.39022141  0.19770681    -0.11500
C419        C  0.04449176  0.36829364  0.17989214     0.02600
C420        C  0.05292222  0.37441528  0.15458990     0.00300
C421        C  0.07818798  0.40085116  0.14839634    -0.11400
C422        C  0.09289572  0.42207446  0.16651339     0.02500
H423        H  0.04904561  0.38602386  0.21662895     0.15500
H424        H  0.08572657  0.40547244  0.12916775     0.15500
C425        C  0.11891079  0.44868495  0.15896189     0.37100
C426        C  0.52280390  0.33959819  0.18817658     0.37000
N427        N  0.13959030  0.47003527  0.15273439    -0.43200
N428        N  0.50570568  0.31658872  0.19507256    -0.43200
C429        C  0.12319398  0.07513728  0.31378340     0.00400
C430        C  0.15280933  0.09673422  0.31773796    -0.11500
C431        C  0.15933477  0.11985696  0.33460020     0.03000
C432        C  0.13627244  0.12089660  0.34949143     0.00300
C433        C  0.10685849  0.09851137  0.34605901    -0.11400
C434        C  0.09999231  0.07716294  0.32749065     0.02500
H435        H  0.17091916  0.09596582  0.30704154     0.15500
H436        H  0.08896830  0.09717262  0.35808803     0.15500
C437        C  0.06886416  0.05787807  0.32258083     0.37100
C438        C  0.18986675  0.14268823  0.33566236     0.37000
N439        N  0.04396846  0.04237892  0.31858556    -0.43200
N440        N  0.21435682  0.16102940  0.33640399    -0.43200
C441        C  0.13967215  0.10254491  0.14084749     0.00400
C442        C  0.16164644  0.09828453  0.15298546    -0.11500
C443        C  0.15413173  0.07930133  0.17336127     0.02600
C444        C  0.12415035  0.06423550  0.18227680     0.00300
C445        C  0.10188964  0.06663093  0.16883905    -0.11400
C446        C  0.10926708  0.08440666  0.14759901     0.02500
H447        H  0.18504104  0.11128704  0.14763861     0.15500
H448        H  0.07864768  0.05452079  0.17491709     0.15500
C449        C  0.08540151  0.08453672  0.13353913     0.37100
C450        C  0.17779180  0.07613874  0.18509953     0.37000
N451        N  0.06636506  0.08471872  0.12219244    -0.43200
N452        N  0.19695390  0.07370975  0.19427721    -0.43200
C453        C  0.47001873  0.36064476  0.35495270     0.00400
C454        C  0.48461876  0.39005133  0.34749893    -0.11500
C455        C  0.47553247  0.39903121  0.32650351     0.02600
C456        C  0.44901678  0.37945840  0.31482090     0.00300
C457        C  0.43287556  0.35085357  0.32352699    -0.11400
C458        C  0.44348039  0.34102727  0.34292876     0.02500
H459        H  0.00442242  0.40556291  0.35697825     0.15500
H460        H  0.41245019  0.33585142  0.31443694     0.15500
C461        C  0.42717609  0.31045242  0.34927782     0.37100
C462        C  0.49439871  0.42779141  0.31654742     0.37000
N463        N  0.41390681  0.28603351  0.35453217    -0.43200
N464        N  0.00959263  0.45071628  0.30838112    -0.43200
C465        C  0.45200976  0.36661512  0.18562048     0.00400
C466        C  0.47539086  0.38913450  0.17215370    -0.11500
C467        C  0.49224249  0.38295448  0.15424557     0.02600
C468        C  0.48630477  0.35386327  0.15022094     0.00300
C469        C  0.46205815  0.33131890  0.16299936    -0.11400
C470        C  0.44491059  0.33745001  0.18054851     0.02500
H471        H  0.48023706  0.41155326  0.17549646     0.15500
H472        H  0.45681155  0.30882850  0.15947605     0.15500
C473        C  0.42020350  0.31356487  0.19313179     0.37100
C474        C  0.51429278  0.40648716  0.13932767     0.37000
N475        N  0.40042514  0.29438786  0.20322427    -0.43200
N476        N  0.53177155  0.42523906  0.12713906    -0.43200
C477        C  0.35448753  0.43903037  0.30856281     0.00400
C478        C  0.35316704  0.46526242  0.30580288    -0.11500
C479        C  0.34274339  0.47635994  0.32522329     0.02600
C480        C  0.34004721  0.46508476  0.34935118     0.00300
C481        C  0.33991399  0.43813052  0.35205283    -0.11400
C482        C  0.34510955  0.42420124  0.33157620     0.02500
H483        H  0.36001099  0.47708107  0.28848725     0.15500
H484        H  0.33638601  0.42815080  0.37021587     0.15500
C485        C  0.34232286  0.39544257  0.33498082     0.37100
C486        C  0.33289673  0.99758513  0.31955970     0.37000
N487        N  0.34014002  0.37243421  0.33771152    -0.43200
N488        N  0.32432123  0.01402065  0.31472471    -0.43200
C489        C  0.35086601  0.42059137  0.17802798     0.00400
C490        C  0.37089975  0.43665094  0.15873934    -0.11500
C491        C  0.36235906  0.45062336  0.14119261     0.02600
C492        C  0.33641295  0.45357935  0.14584375     0.00300
C493        C  0.31450132  0.43401864  0.16236833    -0.11400
C494        C  0.32094527  0.41571345  0.17709821     0.02500
H495        H  0.39309097  0.43830825  0.15733942     0.15500
H496        H  0.29256107  0.43297689  0.16362088     0.15500
C497        C  0.29718024  0.39312815  0.19166071     0.37100
C498        C  0.37884237  0.45951668  0.11787288     0.37000
N499        N  0.27805897  0.37491649  0.20316555    -0.43200
N500        N  0.39170108  0.46637769  0.09901480    -0.43200
C501        C  0.41973498  0.06123892  0.31686895     0.00400
C502        C  0.42369542  0.03934289  0.32863620    -0.11500
C503        C  0.40497472  0.02366121  0.34856500     0.02600
C504        C  0.38172328  0.02973833  0.35671630     0.00300
C505        C  0.37919516  0.05304984  0.34594876    -0.11400
C506        C  0.39758552  0.06837273  0.32579248     0.02500
H507        H  0.44126080  0.03434783  0.32203790     0.15500
H508        H  0.36155992  0.05806032  0.35232508     0.15500
C509        C  0.39280129  0.09061372  0.31395936     0.37100
C510        C  0.41006756  0.50166645  0.36049200     0.37000
N511        N  0.38907565  0.10841020  0.30429325    -0.43200
N512        N  0.41403286  0.48404408  0.37020863    -0.43200
C513        C  0.36876003  0.01953125  0.15452961     0.00400
C514        C  0.39619563  0.01904478  0.15154184    -0.11500
C515        C  0.41894863  0.03205959  0.16876879     0.02600
C516        C  0.41646373  0.04980398  0.18775816     0.00300
C517        C  0.38975429  0.05210236  0.18985837    -0.11400
C518        C  0.36575975  0.03653833  0.17399074     0.02500
H519        H  0.40036779  0.00903439  0.13542724     0.15500
H520        H  0.38737165  0.06555820  0.20440135     0.15500
C521        C  0.33834340  0.03839968  0.17806405     0.37100
C522        C  0.44408482  0.02601377  0.16689545     0.37000
N523        N  0.31639183  0.53992289  0.18142774    -0.43200
N524        N  0.46406276  0.02092052  0.16538152    -0.43200
C525        C  0.10474553  0.15884802  0.35265970     0.00400
C526        C  0.11328456  0.17929029  0.33336768    -0.11500
C527        C  0.09245201  0.17713375  0.31573355     0.02600
C528        C  0.06415652  0.15202688  0.31545897     0.00300
C529        C  0.05509693  0.13345206  0.33626322    -0.11400
C530        C  0.07436868  0.13858931  0.35581408     0.02500
H531        H  0.13589831  0.19718488  0.33245984     0.15500
H532        H  0.03287164  0.11497935  0.33742221     0.15500
C533        C  0.06243223  0.12356127  0.37906963     0.37100
C534        C  0.10037445  0.20077805  0.29840530     0.37000
N535        N  0.05273746  0.11197805  0.39784702    -0.43200
N536        N  0.10665117  0.21980029  0.28462286    -0.43200
C537        C  0.07441994  0.13763565  0.18530703     0.00400
C538        C  0.09695525  0.12929448  0.18821456    -0.11500
C539        C  0.12215444  0.14044624  0.17242434     0.02600
C540        C  0.12015655  0.15022425  0.14865650     0.00300
C541        C  0.09783737  0.15898933  0.14551743    -0.11400
C542        C  0.07729063  0.15565425  0.16485967     0.02500
H543        H  0.09628231  0.11621262  0.20397511     0.15500
H544        H  0.09634737  0.16870133  0.12831724     0.15500
C545        C  0.06001647  0.17126376  0.16356176     0.37100
C546        C  0.15030762  0.14444277  0.18183511     0.37000
N547        N  0.04622548  0.18382820  0.16270912    -0.43200
N548        N  0.17308005  0.14843152  0.18954105    -0.43200
C549        C  0.17413253  0.24336887  0.04085082     0.00400
C550        C  0.14794267  0.21643332  0.04133904    -0.11500
C551        C  0.14620991  0.19284607  0.05519102     0.02600
C552        C  0.17086687  0.19580760  0.06907631     0.00300
C553        C  0.19730139  0.22220959  0.06802781    -0.11400
C554        C  0.19928340  0.24576847  0.05407891     0.02500
H555        H  0.12863961  0.21385598  0.03114772     0.15500
H556        H  0.21603919  0.22487556  0.07909737     0.15500
C557        C  0.22719619  0.27250720  0.05481942     0.37100
C558        C  0.11851261  0.16586840  0.05564669     0.37000
N559        N  0.24963617  0.29385373  0.05532865    -0.43200
N560        N  0.09646387  0.14411757  0.05626168    -0.43200
C561        C  0.09184927  0.32200733  0.03856596     0.00400
C562        C  0.07222377  0.29662837  0.05175300    -0.11500
C563        C  0.05209243  0.29734177  0.07009171     0.02600
C564        C  0.05128292  0.32372895  0.07525727     0.00300
C565        C  0.07097308  0.34890964  0.06220364    -0.11400
C566        C  0.09139833  0.34846076  0.04447612     0.02500
H567        H  0.07232453  0.27618896  0.04752057     0.15500
H568        H  0.07105534  0.36943223  0.06654801     0.15500
C569        C  0.11299174  0.37601781  0.03388674     0.37100
C570        C  0.03298498  0.27100811  0.08357959     0.37000
N571        N  0.13048379  0.39819215  0.02572237    -0.43200
N572        N  0.01762315  0.24980889  0.09429776    -0.43200
C573        C  0.25193885  0.41898988  0.04344121     0.00400
C574        C  0.28272889  0.43564500  0.03852099    -0.11500
C575        C  0.30024845  0.45908936  0.05394902     0.02600
C576        C  0.28676054  0.46581282  0.07456095     0.00300
C577        C  0.25558404  0.45093254  0.07788769    -0.11400
C578        C  0.23807467  0.42771122  0.06239306     0.02500
H579        H  0.29334738  0.42912973  0.02373970     0.15500
H580        H  0.24523175  0.45568748  0.09395756     0.15500
C581        C  0.20618020  0.41197731  0.06728990     0.37100
C582        C  0.33232869  0.47405996  0.04986706     0.37000
N583        N  0.18062142  0.39951952  0.07126765    -0.43200
N584        N  0.35804116  0.48610303  0.04664945    -0.43200
C585        C  0.15124294  0.24460979  0.46441604     0.00400
C586        C  0.14382558  0.21576850  0.47071245    -0.11500
C587        C  0.14575432  0.19650823  0.45312760     0.02600
C588        C  0.15634164  0.20625485  0.42872073     0.00300
C589        C  0.16430302  0.23530995  0.42258714    -0.11400
C590        C  0.16169383  0.25436107  0.44006333     0.02500
H591        H  0.13558561  0.20795859  0.48936175     0.15500
H592        H  0.17183616  0.24290185  0.40378207     0.15500
C593        C  0.17049612  0.28395198  0.43269406     0.37100
C594        C  0.13465515  0.16651122  0.46042142     0.37000
N595        N  0.17758718  0.30769974  0.42679096    -0.43200
N596        N  0.12521633  0.14265142  0.46707165    -0.43200
C597        C  0.06443636  0.31699930  0.45972333     0.00400
C598        C  0.05267212  0.33630798  0.46497648    -0.11500
C599        C  0.03146019  0.33773398  0.44977819     0.02600
C600        C  0.02081009  0.31893573  0.42920648     0.00300
C601        C  0.03069285  0.29805178  0.42495644    -0.11400
C602        C  0.05239363  0.29691163  0.44000295     0.02500
H603        H  0.06153964  0.35177933  0.48010017     0.15500
H604        H  0.02306780  0.28408034  0.40877266     0.15500
C605        C  0.06381154  0.27687019  0.43331782     0.37100
C606        C  0.02362897  0.36091240  0.45406546     0.37000
N607        N  0.07306005  0.26087313  0.42796643    -0.43200
N608        N  0.51770034  0.37970096  0.45749530    -0.43200
C609        C  0.24372281  0.42061490  0.46013676     0.00400
C610        C  0.27004587  0.41814503  0.45686780    -0.11500
C611        C  0.29418488  0.43873067  0.44273360     0.02600
C612        C  0.29207766  0.46212855  0.43136189     0.00300
C613        C  0.26666934  0.46578390  0.43618960    -0.11400
C614        C  0.24290597  0.44571737  0.45091920     0.02500
H615        H  0.27129538  0.39945781  0.46438233     0.15500
H616        H  0.26479711  0.48366980  0.42773179     0.15500
C617        C  0.21808656  0.45159487  0.45652273     0.37100
C618        C  0.32064310  0.43495619  0.43955861     0.37000
N619        N  0.19824339  0.45624783  0.46129342    -0.43200
N620        N  0.34185791  0.43194907  0.43704427    -0.43200
C621        C  0.08059594  0.24755832  0.95136332     0.00400
C622        C  0.06232788  0.22076945  0.96319945    -0.11500
C623        C  0.03902050  0.19786635  0.95035673     0.02600
C624        C  0.03427598  0.20158968  0.92524699     0.00300
C625        C  0.05278413  0.22811546  0.91351438    -0.11400
C626        C  0.07537038  0.25101579  0.92623281     0.02500
H627        H  0.06579583  0.21798507  0.98253671     0.15500
H628        H  0.04949403  0.23092514  0.89411149     0.15500
C629        C  0.09295572  0.27788002  0.91277793     0.37100
C630        C  0.52050626  0.17082704  0.96313016     0.37000
N631        N  0.10672590  0.29947214  0.90204617    -0.43200
N632        N  0.50555232  0.14920126  0.97344643    -0.43200
C633        C  0.19299087  0.47206222  0.92053214     0.00400
C634        C  0.21224653  0.45978710  0.91590067    -0.11500
C635        C  0.21021723  0.43639730  0.93024006     0.02600
C636        C  0.18792312  0.42429655  0.94925946     0.00300
C637        C  0.17014341  0.43806620  0.95487472    -0.11400
C638        C  0.17269898  0.46180503  0.94088738     0.02500
H639        H  0.22772586  0.46739508  0.90010082     0.15500
H640        H  0.15332779  0.42956339  0.96969605     0.15500
C641        C  0.15287339  0.47413237  0.94663026     0.37100
C642        C  0.22969060  0.42389344  0.92370472     0.37000
N643        N  0.13720422  0.48429120  0.95110785    -0.43200
N644        N  0.24536234  0.41392690  0.91849970    -0.43200
C645        C  0.29493143  0.33682457  0.58076044     0.00400
C646        C  0.26990026  0.30985720  0.57728078    -0.11500
C647        C  0.24639218  0.30735803  0.56268756     0.02600
C648        C  0.24767225  0.33242103  0.55106684     0.00300
C649        C  0.27299035  0.35947213  0.55446007    -0.11400
C650        C  0.29657597  0.36182414  0.56904454     0.02500
H651        H  0.26815177  0.29083589  0.58686629     0.15500
H652        H  0.27445593  0.37878134  0.54563105     0.15500
C653        C  0.32226480  0.39015138  0.57183046     0.37100
C654        C  0.22066602  0.27885916  0.56127546     0.37000
N655        N  0.34286474  0.41280660  0.57410907    -0.43200
N656        N  0.20019069  0.25592324  0.56032296    -0.43200
C657        C  0.30728507  0.33820273  0.93197094     0.00400
C658        C  0.27748743  0.32770513  0.92448676    -0.11500
C659        C  0.25565579  0.32927817  0.94021064     0.02600
C660        C  0.26347659  0.34194879  0.96398762     0.00300
C661        C  0.29304496  0.35166626  0.97173156    -0.11400
C662        C  0.31487844  0.35017887  0.95595997     0.02500
H663        H  0.27144852  0.31890742  0.90593935     0.15500
H664        H  0.29941950  0.36137076  0.98996314     0.15500
C665        C  0.34539215  0.36318730  0.96413402     0.37100
C666        C  0.22526259  0.31692635  0.93175734     0.37000
N667        N  0.36988444  0.37378224  0.97064362    -0.43200
N668        N  0.20085381  0.30683501  0.92508439    -0.43200
C669        C  0.17527138  0.41837130  0.53772668     0.00400
C670        C  0.15561102  0.43048529  0.53542303    -0.11500
C671        C  0.15956384  0.45533939  0.54873574     0.02600
C672        C  0.18408153  0.46946140  0.56456295     0.00300
C673        C  0.20425217  0.45798795  0.56654623    -0.11400
C674        C  0.20015217  0.43280514  0.55330355     0.02500
H675        H  0.13645791  0.42007575  0.52351514     0.15500
H676        H  0.22247746  0.46793058  0.57941007     0.15500
C677        C  0.22211003  0.42264447  0.55571579     0.37100
C678        C  0.13661345  0.46443897  0.54744560     0.37000
N679        N  0.23972243  0.41446409  0.55748337    -0.43200
N680        N  0.11780974  0.47117665  0.54663661    -0.43200
C681        C  0.02334676  0.18983813  0.57296886     0.00400
C682        C  0.02691188  0.21835348  0.57308774    -0.11500
C683        C  0.05051008  0.24063962  0.55971752     0.02600
C684        C  0.07105057  0.23445918  0.54604617     0.00300
C685        C  0.06640462  0.20561866  0.54465202    -0.11400
C686        C  0.04260308  0.18328560  0.55777241     0.02500
H687        H  0.01260420  0.22369610  0.58508864     0.15500
H688        H  0.08199895  0.20073187  0.53393034     0.15500
C689        C  0.03902528  0.15401316  0.55625789     0.37100
C690        C  0.05473083  0.27005003  0.56216115     0.37000
N691        N  0.03602095  0.13050586  0.55522329    -0.43200
N692        N  0.05804608  0.29358824  0.56429782    -0.43200
C693        C  0.44288889  0.37673710  0.81693418     0.00400
C694        C  0.42380214  0.34757982  0.82328065    -0.11500
C695        C  0.40352230  0.34057267  0.84350144     0.02600
C696        C  0.40183782  0.36302911  0.85752791     0.00300
C697        C  0.42204648  0.39217381  0.85184749    -0.11400
C698        C  0.44228138  0.39913342  0.83165714     0.02500
H699        H  0.42438449  0.33031496  0.81211813     0.15500
H700        H  0.42127090  0.40956055  0.86269763     0.15500
C701        C  0.46159423  0.42944315  0.82585766     0.37100
C702        C  0.38321818  0.31024478  0.84847025     0.37000
N703        N  0.47704306  0.45373280  0.82116259    -0.43200
N704        N  0.36674032  0.28606295  0.85269116    -0.43200
C705        C  0.13952670  0.46895033  0.84455536     0.00400
C706        C  0.14753817  0.46161759  0.82141338    -0.11500
C707        C  0.12559219  0.44626870  0.80369032     0.02600
C708        C  0.09556901  0.44101011  0.80796352     0.00300
C709        C  0.08784225  0.44724550  0.83177180    -0.11400
C710        C  0.10889534  0.45858127  0.85047821     0.02500
H711        H  0.17082595  0.46758673  0.81732053     0.15500
H712        H  0.06521966  0.44351489  0.83591231     0.15500
C713        C  0.09886973  0.96203499  0.87507793     0.37100
C714        C  0.13435818  0.43553284  0.78178472     0.37000
N715        N  0.09076357  0.96493373  0.89469421    -0.43200
N716        N  0.14148264  0.42687650  0.76431952    -0.43200
C717        C  0.08815996  0.44921739  0.67872253     0.00400
C718        C  0.08637339  0.46927151  0.66246489    -0.11500
C719        C  0.10762696  0.48195619  0.64318805     0.02600
C720        C  0.13132168  0.47486187  0.64030758     0.00300
C721        C  0.13175929  0.45325410  0.65538907    -0.11400
C722        C  0.11078684  0.44084405  0.67480270     0.02500
H723        H  0.06856892  0.47523329  0.66505573     0.15500
H724        H  0.14961505  0.44734156  0.65288513     0.15500
C725        C  0.11350120  0.42025333  0.69092987     0.37100
C726        C  0.10465423  0.00192563  0.62644001     0.37000
N727        N  0.11594392  0.40399938  0.70399056    -0.43200
N728        N  0.10245697  0.01791456  0.61288615    -0.43200
C729        C  0.43327822  0.37728510  0.68676543     0.00400
C730        C  0.43135424  0.39835226  0.67189490    -0.11500
C731        C  0.40913345  0.39024819  0.65405651     0.02600
C732        C  0.38799563  0.36062104  0.65113892     0.00300
C733        C  0.39140649  0.33941924  0.66472146    -0.11400
C734        C  0.41351371  0.34756519  0.68269570     0.02500
H735        H  0.44725863  0.42116779  0.67426837     0.15500
H736        H  0.37576654  0.31654882  0.66221080     0.15500
C737        C  0.41541935  0.32521811  0.69705258     0.37100
C738        C  0.40875888  0.41252269  0.63848763     0.37000
N739        N  0.41714112  0.30756089  0.70879237    -0.43200
N740        N  0.40810296  0.43005455  0.62582138    -0.43200
C741        C  0.04926230  0.12187809  0.81361050     0.00400
C742        C  0.05902400  0.15157049  0.81808293    -0.11500
C743        C  0.04534228  0.16061405  0.83663023     0.02600
C744        C  0.02231843  0.13975813  0.85189987     0.00300
C745        C  0.01263799  0.10996607  0.84751265    -0.11400
C746        C  0.02542430  0.10090452  0.82814995     0.02500
H747        H  0.07694418  0.16768856  0.80660189     0.15500
H748        H  0.49464222  0.09380722  0.85890249     0.15500
C749        C  0.51351121  0.07008892  0.82332499     0.37100
C750        C  0.05419486  0.19132802  0.83878694     0.37000
N751        N  0.50375668  0.04535989  0.81950255    -0.43200
N752        N  0.06103562  0.21589023  0.84047546    -0.43200
C753        C  0.15054902  0.06500016  0.80872569     0.00400
C754        C  0.18059702  0.07607139  0.81553102    -0.11500
C755        C  0.18915073  0.06089681  0.83234526     0.02600
C756        C  0.16707245  0.03529922  0.84424119     0.00300
C757        C  0.13701701  0.02648128  0.83909519    -0.11400
C758        C  0.12882532  0.03927001  0.82029285     0.02500
H759        H  0.19742271  0.09648234  0.80764833     0.15500
H760        H  0.11948578  0.01007077  0.85017999     0.15500
C761        C  0.09764914  0.02578066  0.81363093     0.37100
C762        C  0.22059509  0.07251408  0.83739592     0.37000
N763        N  0.07270810  0.01505305  0.80831513    -0.43200
N764        N  0.24576074  0.08206650  0.84169913    -0.43200
C765        C  0.17206873  0.03875049  0.64524245     0.00400
C766        C  0.16799298  0.06296023  0.63937112    -0.11500
C767        C  0.15849883  0.07655728  0.65758982     0.02600
C768        C  0.15051056  0.06443843  0.68171040     0.00300
C769        C  0.15615431  0.04114603  0.68764515    -0.11400
C770        C  0.16909711  0.03003241  0.67024621     0.02500
H771        H  0.17140237  0.07077551  0.62039670     0.15500
H772        H  0.15127521  0.03212771  0.70621116     0.15500
C773        C  0.18034878  0.01076303  0.67866968     0.37100
C774        C  0.15697503  0.10271191  0.65101663     0.37000
N775        N  0.18980107  0.49573332  0.68558089    -0.43200
N776        N  0.15572275  0.12366442  0.64575316    -0.43200
C777        C  0.01681522  0.13340529  0.64860980     0.00400
C778        C  0.00396981  0.10364798  0.65480455    -0.11500
C779        C  0.01641687  0.09376404  0.67296405     0.02600
C780        C  0.04340502  0.11351027  0.68406280     0.00300
C781        C  0.05700002  0.14295437  0.67710160    -0.11400
C782        C  0.04384007  0.15311932  0.65987320     0.02500
H783        H  0.98358716  0.08817947  0.64597878     0.15500
H784        H  0.07758043  0.15824044  0.68581979     0.15500
C785        C  0.05775325  0.18410488  0.65515410     0.37100
C786        C  0.00063133  0.06352373  0.68030210     0.37000
N787        N  0.06890297  0.20892231  0.65135564    -0.43200
N788        N  0.98770840  0.03922147  0.68598410    -0.43200
C789        C  0.42235964  0.08060754  0.81569093     0.00400
C790        C  0.41310465  0.07558666  0.84076253    -0.11500
C791        C  0.43030406  0.09482148  0.85921597     0.02600
C792        C  0.45626125  0.12077511  0.85254171     0.00300
C793        C  0.46397919  0.12701022  0.82732433    -0.11400
C794        C  0.44827151  0.10662203  0.80906493     0.02500
H795        H  0.39346355  0.05549981  0.84606341     0.15500
H796        H  0.98356364  0.14708880  0.82198921     0.15500
C797        C  0.46076533  0.11190529  0.78413134     0.37100
C798        C  0.42212775  0.08629200  0.88484547     0.37000
N799        N  0.97055989  0.11601520  0.76407012    -0.43200
N800        N  0.41580078  0.07955492  0.90541303    -0.43200
C801        C  0.35873922  0.38810858  0.85481542     0.00400
C802        C  0.35958728  0.41443485  0.86247080    -0.11500
C803        C  0.36039326  0.43465722  0.84525062     0.02600
C804        C  0.36332748  0.43012065  0.81960870     0.00300
C805        C  0.36318938  0.40400701  0.81199294    -0.11400
C806        C  0.35898931  0.38235543  0.82916339     0.02500
H807        H  0.35867634  0.41883787  0.88211871     0.15500
H808        H  0.36527497  0.39998095  0.79243399     0.15500
C809        C  0.35263304  0.35393564  0.81976729     0.37100
C810        C  0.35692904  0.45918948  0.85450612     0.37000
N811        N  0.34702927  0.33122823  0.81170603    -0.43200
N812        N  0.35425177  0.47887856  0.86196219    -0.43200
C813        C  0.41649379  0.07631833  0.69118788     0.00400
C814        C  0.44194281  0.10228353  0.69764747    -0.11500
C815        C  0.45833525  0.12351222  0.67979201     0.02600
C816        C  0.45122483  0.11759922  0.65454449     0.00300
C817        C  0.42516589  0.09234849  0.64821042    -0.11400
C818        C  0.40721932  0.07245271  0.66632550     0.02500
H819        H  0.44916859  0.10603396  0.71667127     0.15500
H820        H  0.41887559  0.08800283  0.62892986     0.15500
C821        C  0.37927974  0.04852860  0.65879986     0.37100
C822        C  0.98159601  0.15133608  0.68793090     0.37000
N823        N  0.35686560  0.02962735  0.65242821    -0.43200
N824        N  0.99986081  0.17371272  0.69471069    -0.43200
C825        C  0.34198992  0.38275052  0.65871841     0.00400
C826        C  0.33875489  0.40739522  0.65259866    -0.11500
C827        C  0.33902834  0.42676995  0.67075511     0.02600
C828        C  0.34656916  0.42403995  0.69521686     0.00300
C829        C  0.34935133  0.39920725  0.70154383    -0.11400
C830        C  0.34503943  0.37769850  0.68392261     0.02500
H831        H  0.33563694  0.41149261  0.63349555     0.15500
H832        H  0.35463709  0.39635385  0.72033433     0.15500
C833        C  0.34173476  0.35015373  0.69264083     0.37100
C834        C  0.33106866  0.44898106  0.66378452     0.37000
N835        N  0.33866202  0.32807640  0.70009689    -0.43200
N836        N  0.32428913  0.46646237  0.65809092    -0.43200
C837        C  0.41393139  0.16770776  0.54307666     0.00400
C838        C  0.42238420  0.14562312  0.54026305    -0.11500
C839        C  0.44341504  0.14436581  0.55604255     0.02600
C840        C  0.45570687  0.16501299  0.57525442     0.00300
C841        C  0.44714407  0.18690566  0.57816660    -0.11400
C842        C  0.42675638  0.18866154  0.56213736     0.02500
H843        H  0.41284837  0.12961815  0.52561659     0.15500
H844        H  0.45583528  0.20219565  0.59343080     0.15500
C845        C  0.41825919  0.21137195  0.56651113     0.37100
C846        C  0.45171067  0.12140734  0.55267914     0.37000
N847        N  0.41152612  0.22959425  0.57010430    -0.43200
N848        N  0.45869347  0.10321767  0.55014345    -0.43200
C849        C  0.32322516  0.02933178  0.42922852     0.00400
C850        C  0.33552384  0.03860254  0.45264182    -0.11500
C851        C  0.33444546  0.06243837  0.46434932     0.02600
C852        C  0.32130690  0.07759900  0.45223078     0.00300
C853        C  0.30783663  0.06713620  0.42923095    -0.11400
C854        C  0.30861024  0.04329687  0.41779805     0.02500
H855        H  0.34705074  0.02801783  0.46125749     0.15500
H856        H  0.29725613  0.07806515  0.41969978     0.15500
C857        C  0.29575598  0.03447038  0.39353378     0.37100
C858        C  0.34691818  0.07070353  0.48868107     0.37000
N859        N  0.28561359  0.02727657  0.37410273    -0.43200
N860        N  0.35695090  0.07731003  0.50819393    -0.43200
C861        C  0.22053003  0.03816598  0.56481277     0.00400
C862        C  0.25162555  0.04864845  0.56598518    -0.11500
C863        C  0.27177925  0.07208759  0.55101589     0.02600
C864        C  0.26086821  0.08551872  0.53422203     0.00300
C865        C  0.22959204  0.07471814  0.53317738    -0.11400
C866        C  0.20965464  0.05174762  0.54834264     0.02500
H867        H  0.26024498  0.03929684  0.57946641     0.15500
H868        H  0.22049029  0.08469808  0.52074051     0.15500
C869        C  0.17821475  0.04396792  0.54785267     0.37100
C870        C  0.30337693  0.08185842  0.55361425     0.37000
N871        N  0.15318889  0.03831170  0.54742803    -0.43200
N872        N  0.32865684  0.08957451  0.55608716    -0.43200
C873        C  0.40427865  0.25955299  0.45946900     0.00400
C874        C  0.41040814  0.24974297  0.43668195    -0.11500
C875        C  0.43466221  0.26849214  0.42120970     0.02600
C876        C  0.45301171  0.29786728  0.42810313     0.00300
C877        C  0.44638178  0.30783862  0.45049836    -0.11400
C878        C  0.42264920  0.28906529  0.46620238     0.02500
H879        H  0.39704613  0.22711202  0.43143253     0.15500
H880        H  0.45944938  0.33054704  0.45556306     0.15500
C881        C  0.41710354  0.30098316  0.48891809     0.37100
C882        C  0.44086808  0.25693969  0.39858443     0.37000
N883        N  0.41279703  0.31076516  0.50704353    -0.43200
N884        N  0.44606752  0.24758314  0.38059203    -0.43200
C885        C  0.24298057  0.17946540  0.45335352     0.00400
C886        C  0.21512055  0.15391011  0.45362463    -0.11500
C887        C  0.19156371  0.15098130  0.43891743     0.02600
C888        C  0.19450032  0.17441995  0.42418443     0.00300
C889        C  0.22161347  0.20067843  0.42466604    -0.11400
C890        C  0.24594228  0.20323522  0.43878915     0.02500
H891        H  0.21185096  0.13525402  0.46462804     0.15500
H892        H  0.22428468  0.21869008  0.41304888     0.15500
C893        C  0.27394912  0.22977671  0.43704363     0.37100
C894        C  0.16486873  0.12309086  0.43859296     0.37000
N895        N  0.29659463  0.25087947  0.43562840    -0.43200
N896        N  0.14349267  0.10076608  0.43823229    -0.43200
C897        C  0.32882271  0.25969560  0.54559472     0.00400
C898        C  0.32103614  0.25255956  0.57066834    -0.11500
C899        C  0.32088042  0.27312625  0.58752331     0.02600
C900        C  0.32934282  0.30175939  0.57950431     0.00300
C901        C  0.33468881  0.30830155  0.55404607    -0.11400
C902        C  0.33418503  0.28732730  0.53698734     0.02500
H903        H  0.31639452  0.23116499  0.57732368     0.15500
H904        H  0.34054142  0.33010160  0.54768994     0.15500
C905        C  0.34079756  0.29510701  0.51112678     0.37100
C906        C  0.31281102  0.26465735  0.61317750     0.37000
N907        N  0.34587619  0.30135347  0.49036356    -0.43200
N908        N  0.30635933  0.25808749  0.63375969    -0.43200
C909        C  0.25521876  0.08516796  0.95448915     0.00400
C910        C  0.22612731  0.08069078  0.95043080    -0.11500
C911        C  0.20643304  0.05761255  0.93571891     0.02600
C912        C  0.21599383  0.03877157  0.92382506     0.00300
C913        C  0.24440696  0.04188637  0.92938623    -0.11400
C914        C  0.26389149  0.06470152  0.94481809     0.02500
H915        H  0.21898024  0.09579643  0.95832593     0.15500
H916        H  0.25211925  0.02767913  0.92047774     0.15500
C917        C  0.29339427  0.06794859  0.94897380     0.37100
C918        C  0.17681340  0.05453174  0.93235065     0.37000
N919        N  0.31705744  0.07058509  0.95236201    -0.43200
N920        N  0.15318024  0.05231653  0.92970522    -0.43200
C921        C  0.24798905  0.15579116  0.03610355     0.00400
C922        C  0.25495379  0.16472162  0.06080788    -0.11500
C923        C  0.23370569  0.16669717  0.07707403     0.02600
C924        C  0.20440536  0.15866542  0.06910030     0.00300
C925        C  0.19748827  0.15019301  0.04438476    -0.11400
C926        C  0.21891511  0.14897409  0.02787484     0.02500
H927        H  0.27733006  0.17105787  0.06721868     0.15500
H928        H  0.17503505  0.14381137  0.03812567     0.15500
C929        C  0.20996635  0.13977543  0.00273276     0.37100
C930        C  0.24276649  0.17810136  0.10170000     0.37000
N931        N  0.20256093  0.13254740  0.98260339    -0.43200
N932        N  0.25018032  0.18769173  0.12130384    -0.43200
C933        C  0.42432689  0.17797788  0.96506290     0.00400
C934        C  0.44450412  0.20283655  0.95164916    -0.11500
C935        C  0.46483742  0.20118477  0.93410634     0.02600
C936        C  0.46536677  0.17448464  0.93024204     0.00300
C937        C  0.44516995  0.14984246  0.94359788    -0.11400
C938        C  0.42440303  0.15113303  0.96036219     0.02500
H939        H  0.44454413  0.22350256  0.95500323     0.15500
H940        H  0.44470913  0.12901233  0.93995268     0.15500
C941        C  0.40201062  0.12396433  0.97097500     0.37100
C942        C  0.48426025  0.22675904  0.91987978     0.37000
N943        N  0.38399412  0.10186825  0.97885057    -0.43200
N944        N  0.49988773  0.24728795  0.90848246    -0.43200
C945        C  0.32826100  0.07680454  0.04841577     0.00400
C946        C  0.30032572  0.05991861  0.06037261    -0.11500
C947        C  0.29596949  0.03711610  0.07647652     0.02600
C948        C  0.31987567  0.03100394  0.08074345     0.00300
C949        C  0.34694752  0.04641160  0.06765292    -0.11400
C950        C  0.35141747  0.06891766  0.05155891     0.02500
H951        H  0.28219417  0.06523991  0.05796704     0.15500
H952        H  0.36517729  0.04134429  0.07069861     0.15500
C953        C  0.38057765  0.08376516  0.03945245     0.37100
C954        C  0.26731294  0.02132850  0.08907811     0.37000
N955        N  0.40415304  0.09540652  0.03010445    -0.43200
N956        N  0.24409620  0.50884404  0.09888490    -0.43200
C957        C  0.43392697  0.25011386  0.05172917     0.00400
C958        C  0.43543280  0.24674531  0.07733565    -0.11500
C959        C  0.45899867  0.26720297  0.09102828     0.02600
C960        C  0.48142430  0.29259170  0.07941864     0.00300
C961        C  0.48071905  0.29575256  0.05359946    -0.11400
C962        C  0.45747602  0.27427103  0.03961368     0.02500
H963        H  0.41819640  0.22763871  0.08671235     0.15500
H964        H  0.49807879  0.31493362  0.04446065     0.15500
C965        C  0.45938151  0.27607588  0.01289531     0.37100
C966        C  0.45961615  0.26173473  0.11721784     0.37000
N967        N  0.46098019  0.27689708  0.99143742    -0.43200
N968        N  0.46025720  0.25753523  0.13817578    -0.43200
C969        C  0.34681205  0.26094231  0.96062740     0.00400
C970        C  0.32263529  0.25679224  0.94574855    -0.11500
C971        C  0.32288762  0.27957217  0.93197885     0.02600
C972        C  0.34766333  0.30760365  0.93291939     0.00300
C973        C  0.37164704  0.31209793  0.94820830    -0.11400
C974        C  0.37131000  0.28918416  0.96216934     0.02500
H975        H  0.30359238  0.23526456  0.94425216     0.15500
H976        H  0.39096394  0.33352216  0.94886756     0.15500
C977        C  0.39569338  0.29559922  0.97857299     0.37100
C978        C  0.29832802  0.27294807  0.91565495     0.37000
N979        N  0.41517053  0.30117074  0.99194055    -0.43200
N980        N  0.27860601  0.26746351  0.90257099    -0.43200
O981        O  0.35984738  0.62053355  0.02680506    -0.80400
O982        O  0.36691336  0.73147536  0.97942988    -0.65100
O983        O  0.35169890  0.66967340  0.02529445    -1.11700
C984        C  0.27624992  0.61243826  0.96722156     1.06500
O985        O  0.31815906  0.71603941  0.98097563    -0.78300
O986        O  0.27277712  0.66654525  0.99715371    -0.65800
Ni987      Ni  0.38206935  0.66075921  0.03558853     1.34900
C988        C  0.27180315  0.65645076  0.01858776     0.85300
O989        O  0.39402923  0.72934562  0.02233199    -0.78800
O990        O  0.40663970  0.70032546  0.04472500    -0.89100
C991        C  0.34429725  0.73512177  0.97440302     0.84800
O992        O  0.40302818  0.66639188  0.00492064    -0.67300
O993        O  0.27991093  0.63661203  0.95812441    -0.86600
C994        C  0.40498579  0.68019578  0.98521345     0.85700
C995        C  0.41007765  0.72532625  0.03843722     1.07200
H996        H  0.33988541  0.66566268  0.96959929     0.39000
O997        O  0.33056195  0.67041091  0.98355619    -1.09200
O998        O  0.29026970  0.64753212  0.02531585    -0.65900
Ni999      Ni  0.31986900  0.63987510  0.00692381     1.26300
O1000       O  0.39116704  0.69510783  0.98227154    -0.66100
O1001       O  0.28919242  0.61065723  0.98671782    -0.78400
C1002       C  0.33365077  0.60366696  0.03475513     0.85000
O1003       O  0.31273635  0.61011103  0.03090835    -0.65600
Ni1004     Ni  0.29998169  0.67643027  0.96964842     1.27400
Ni1005     Ni  0.36184140  0.70091876  0.00234778     1.26100
H1006       H  0.34329625  0.67398553  0.04011744     0.39600
O1007       O  0.39909809  0.69421902  0.51658881    -0.80400
O1008       O  0.29444684  0.69964475  0.46861537    -0.65100
O1009       O  0.34151515  0.68491064  0.51574584    -1.11700
C1010       C  0.31936422  0.60308105  0.46323675     1.06500
O1011       O  0.26228982  0.65475378  0.47773724    -0.78300
O1012       O  0.26761400  0.61029221  0.49648249    -0.65800
Ni1013     Ni  0.37784972  0.71455466  0.52776429     1.34900
C1014       C  0.28030485  0.60857607  0.51583973     0.85300
O1015       O  0.32201223  0.72755160  0.51127466    -0.78800
O1016       O  0.35748823  0.73561013  0.53941789    -0.89100
C1017       C  0.26796689  0.67847563  0.46712704     0.84800
O1018       O  0.39240151  0.73877067  0.49916681    -0.67300
O1019       O  0.29780052  0.60733931  0.45595440    -0.86600
C1020       C  0.38238831  0.73828650  0.47778362     0.85700
C1021       C  0.33658339  0.73994032  0.53081266     1.07200
H1022       H  0.33065556  0.66774042  0.46014149     0.39000
O1023       O  0.31884675  0.66126506  0.47533702    -1.09200
O1024       O  0.30817796  0.62494894  0.51931222    -0.65900
Ni1025     Ni  0.34130673  0.65222488  0.49820605     1.26300
O1026       O  0.35539028  0.72063470  0.47196083    -0.66100
O1027       O  0.33853870  0.61923323  0.47922576    -0.78400
C1028       C  0.39262483  0.66961302  0.52584835     0.85000
O1029       O  0.36754837  0.64772221  0.52116470    -0.65600
Ni1030     Ni  0.28078379  0.63180747  0.46654809     1.27400
Ni1031     Ni  0.32014197  0.69468186  0.49225247     1.26100
H1032       H  0.32842725  0.67735912  0.53017609     0.39600
N1033       N  0.37512236  0.50060597  0.71800406    -0.36100
N1034       N  0.39623030  0.54545116  0.75448294    -0.56600
N1035       N  0.38345268  0.50372742  0.79317001    -0.36100
N1036       N  0.36067707  0.95855037  0.75717802    -0.56600
C1037       C  0.39528693  0.52414866  0.70520377     0.27500
C1038       C  0.37405573  0.97680960  0.70672903     0.27500
C1039       C  0.40435702  0.52890078  0.80282957     0.27500
C1040       C  0.38644064  0.98183806  0.80382540     0.27500
C1041       C  0.39575151  0.56047699  0.73450192     0.36100
C1042       C  0.39784396  0.56175249  0.77453350     0.36100
C1043       C  0.34439207  0.94142677  0.73862754     0.36100
C1044       C  0.35042005  0.94300595  0.77824589     0.36100
C1045       C  0.40770264  0.51523621  0.68579014    -0.21400
C1046       C  0.39416657  0.98522455  0.68670414    -0.21400
C1047       C  0.42132129  0.52311302  0.81953617    -0.21400
C1048       C  0.41017376  0.99326398  0.81995252    -0.21400
C1049       C  0.39548352  0.58604879  0.74187287    -0.22400
C1050       C  0.39650396  0.58672143  0.76745806    -0.22400
C1051       C  0.32234380  0.91514769  0.74804034    -0.22400
C1052       C  0.32624999  0.91611774  0.77332775    -0.22400
C1053       C  0.40102314  0.55307334  0.71031767    -0.17800
C1054       C  0.35383639  0.94788567  0.71365592    -0.17800
C1055       C  0.36619398  0.95203503  0.80052339    -0.17800
C1056       C  0.40685740  0.55654654  0.79762344    -0.17800
H1057       H  0.42455947  0.52885803  0.67228880     0.15100
H1058       H  0.39855653  0.97122936  0.67405434     0.15100
H1059       H  0.43971434  0.53872806  0.83031602     0.15100
H1060       H  0.41811068  0.98132000  0.83126363     0.15100
H1061       H  0.39626704  0.60311413  0.73005282     0.13400
H1062       H  0.39856459  0.60456204  0.77925717     0.13400
H1063       H  0.30637920  0.89666302  0.73766221     0.13400
H1064       H  0.31370637  0.89862029  0.78633247     0.13400
H1065       H  0.36056460  0.50050427  0.73217586     0.26700
H1066       H  0.36587516  0.50151139  0.78208174     0.26700
N1067       N  0.09872489  0.59238179  0.70919243    -0.36100
N1068       N  0.13379652  0.58218862  0.74608612    -0.56600
N1069       N  0.10441229  0.59935044  0.78521730    -0.36100
N1070       N  0.06635131  0.60589077  0.74847211    -0.56600
C1071       C  0.11034080  0.57770134  0.69566678     0.27500
C1072       C  0.07520821  0.59101245  0.69667116     0.27500
C1073       C  0.12004750  0.59002255  0.79932438     0.27500
C1074       C  0.08549198  0.60409756  0.80058469     0.27500
C1075       C  0.14884584  0.58134450  0.72526349     0.36100
C1076       C  0.15010951  0.58194637  0.76547573     0.36100
C1077       C  0.05484606  0.61246633  0.72860364     0.36100
C1078       C  0.05765690  0.61601664  0.76865502     0.36100
C1079       C  0.09365921  0.56658338  0.67449123    -0.21400
C1080       C  0.07206737  0.57565006  0.67480424    -0.21400
C1081       C  0.11210289  0.59050870  0.82411758    -0.21400
C1082       C  0.09033825  0.59926426  0.82490083    -0.21400
C1083       C  0.17546519  0.58169801  0.73150462    -0.22400
C1084       C  0.17568720  0.58090040  0.75687971    -0.22400
C1085       C  0.03815404  0.62617622  0.73623877    -0.22400
C1086       C  0.03992286  0.62838258  0.76157463    -0.22400
C1087       C  0.13671826  0.57575058  0.70119423    -0.17800
C1088       C  0.05776945  0.60481341  0.70379080    -0.17800
C1089       C  0.06452447  0.61346816  0.79351650    -0.17800
C1090       C  0.14104672  0.58067565  0.79068505    -0.17800
H1091       H  0.09699910  0.55373805  0.65997093     0.15100
H1092       H  0.05587085  0.57121913  0.66052605     0.15100
H1093       H  0.12098661  0.58503956  0.84010997     0.15100
H1094       H  0.07933527  0.60168696  0.84159718     0.15100
H1095       H  0.19245063  0.58123348  0.71911661     0.13400
H1096       H  0.19298592  0.57981297  0.76742768     0.13400
H1097       H  0.02567208  0.63351132  0.72482630     0.13400
H1098       H  0.02943509  0.63814701  0.77340670     0.13400
H1099       H  0.10849308  0.60562076  0.72442663     0.26700
H1100       H  0.10726755  0.60342536  0.76636657     0.26700
N1101       N  0.01715271  0.90693582  0.78416568    -0.36100
N1102       N  0.46828804  0.88811750  0.74957121    -0.56600
N1103       N  0.01210879  0.91168710  0.70953773    -0.36100
N1104       N  0.06108955  0.92833327  0.74427893    -0.56600
C1105       C  0.49320827  0.88923297  0.79846012     0.27500
C1106       C  0.04196130  0.90915168  0.79516028     0.27500
C1107       C  0.48703608  0.89568097  0.69661051     0.27500
C1108       C  0.03576355  0.91798461  0.69397400     0.27500
C1109       C  0.45264600  0.88481466  0.77108345     0.36100
C1110       C  0.44984130  0.88586641  0.73100204     0.36100
C1111       C  0.07851678  0.94131484  0.76394921     0.36100
C1112       C  0.07571429  0.94435501  0.72411360     0.36100
C1113       C  0.50270458  0.87970376  0.81861007    -0.21400
C1114       C  0.03341266  0.89171067  0.81622427    -0.21400
C1115       C  0.49489022  0.89161976  0.67256686    -0.21400
C1116       C  0.02569876  0.90571962  0.67090237    -0.21400
C1117       C  0.42391614  0.88012036  0.76619291    -0.22400
C1118       C  0.42209567  0.88065283  0.74073967    -0.22400
C1119       C  0.10407817  0.96608154  0.75622040    -0.22400
C1120       C  0.10259089  0.96758456  0.73086953    -0.22400
C1121       C  0.46341817  0.88369014  0.79480006    -0.17800
C1122       C  0.07185648  0.92964847  0.78833273    -0.17800
C1123       C  0.06590099  0.93688999  0.69955127    -0.17800
C1124       C  0.45739039  0.88671707  0.70541550    -0.17800
H1125       H  0.48895621  0.86578225  0.83359047     0.15100
H1126       H  0.04789375  0.88890702  0.82914798     0.15100
H1127       H  0.47997032  0.88019620  0.65762495     0.15100
H1128       H  0.03912922  0.90734747  0.65442853     0.15100
H1129       H  0.40599791  0.87614262  0.77951804     0.13400
H1130       H  0.40256716  0.87735367  0.73056765     0.13400
H1131       H  0.12207944  0.98132838  0.76753397     0.13400
H1132       H  0.11926501  0.98385991  0.71876879     0.13400
H1133       H  0.01677065  0.92009960  0.76989809     0.26700
H1134       H  0.01311700  0.92101382  0.72690145     0.26700
C1135       C  0.47302456  0.66077956  0.59500316     0.02800
C1136       C  0.00384178  0.66928834  0.59246440     0.02800
C1137       C  0.01744037  0.66023292  0.61035646    -0.17700
C1138       C  0.00127082  0.64357572  0.63102393     0.02800
C1139       C  0.47061904  0.63650401  0.63411939     0.02800
C1140       C  0.45704300  0.64520521  0.61600420    -0.17700
H1141       H  0.43337905  0.63900109  0.61787413     0.04800
H1142       H  0.04099225  0.66621685  0.60809045     0.04800
C1143       C  0.20091033  0.51985682  0.58545670     0.02800
C1144       C  0.18301983  0.98903187  0.58454541     0.02800
C1145       C  0.16156549  0.97513293  0.60348454    -0.17700
C1146       C  0.15689300  0.99082414  0.62277204     0.02800
C1147       C  0.17612100  0.52116413  0.62481978     0.02800
C1148       C  0.19780998  0.53519665  0.60607770    -0.17700
H1149       H  0.21172501  0.55863400  0.60701464     0.04800
H1150       H  0.14727324  0.95173781  0.60258809     0.04800
C1151       C  0.35135330  0.83052437  0.91472427     0.02800
C1152       C  0.33080959  0.84197014  0.91282644     0.02800
C1153       C  0.33360355  0.85970962  0.89251147    -0.17700
C1154       C  0.35641799  0.86712127  0.87438600     0.02800
C1155       C  0.37745515  0.85645768  0.87655198     0.02800
C1156       C  0.37466953  0.83848682  0.89680160    -0.17700
H1157       H  0.39042612  0.82987369  0.89824086     0.04800
H1158       H  0.31799496  0.86851036  0.89103325     0.04800
C1159       C  0.31685211  0.83938433  0.59959521     0.02800
C1160       C  0.33465306  0.82504695  0.59800266     0.02800
C1161       C  0.35724908  0.83179103  0.61548596    -0.17700
C1162       C  0.36149997  0.85153888  0.63497184     0.02800
C1163       C  0.34068405  0.86262979  0.63826432     0.02800
C1164       C  0.31876133  0.85618954  0.62046713    -0.17700
H1165       H  0.30285133  0.86465798  0.62265204     0.04800
H1166       H  0.37197131  0.82192709  0.61360199     0.04800
C1167       C  0.19901558  0.52012127  0.90246124     0.02800
C1168       C  0.18900927  0.98966458  0.90075066     0.02800
C1169       C  0.17105093  0.97404819  0.88074741    -0.17700
C1170       C  0.16286125  0.98777830  0.86239192     0.02800
C1171       C  0.17450354  0.51863282  0.86308686     0.02800
C1172       C  0.19237117  0.53404055  0.88310803    -0.17700
H1173       H  0.20029387  0.55735372  0.88425087     0.04800
H1174       H  0.16192662  0.95052298  0.88019467     0.04800
C1175       C  0.01285361  0.67789512  0.90929792     0.02800
C1176       C  0.48183677  0.66922963  0.90934153     0.02800
C1177       C  0.46433277  0.65128515  0.89023432    -0.17700
C1178       C  0.47649018  0.64067427  0.87162475     0.02800
C1179       C  0.00744024  0.64890963  0.87174382     0.02800
C1180       C  0.02509689  0.66731658  0.89058737    -0.17700
H1181       H  0.04894022  0.67413829  0.89034236     0.04800
H1182       H  0.44062897  0.64507227  0.89014939     0.04800
O1183       O  0.10869524  0.84693439  0.48120031    -0.80400
O1184       O  0.21862413  0.85221322  0.53117530    -0.65100
O1185       O  0.15915774  0.83923165  0.48326612    -1.11700
C1186       C  0.09901833  0.75781670  0.53531198     1.06500
O1187       O  0.20623877  0.80614627  0.52545173    -0.78300
O1188       O  0.15928877  0.76280127  0.50507448    -0.65800
Ni1189     Ni  0.15039229  0.86855932  0.47204506     1.34900
C1190       C  0.14935103  0.76405766  0.48410352     0.85300
O1191       O  0.21934035  0.88042752  0.48824629    -0.78800
O1192       O  0.19155095  0.89187343  0.46268980    -0.89100
C1193       C  0.22304124  0.83038717  0.53534148     0.84800
O1194       O  0.15713588  0.89103131  0.50135017    -0.67300
O1195       O  0.12355226  0.76081997  0.54408224    -0.86600
C1196       C  0.17093640  0.89327906  0.52118028     0.85700
C1197       C  0.21663675  0.89611370  0.47123319     1.07200
H1198       H  0.15143099  0.82238606  0.53872772     0.39000
O1199       O  0.15744681  0.81519282  0.52415533    -1.09200
O1200       O  0.13792356  0.78080243  0.47964207    -0.65900
Ni1201     Ni  0.12781504  0.80640898  0.49993778     1.26300
O1202       O  0.18169931  0.87606556  0.52645743    -0.66100
O1203       O  0.09743321  0.77362269  0.51798829    -0.78400
C1204       C  0.09182491  0.82166394  0.47279323     0.85000
O1205       O  0.09874162  0.80131890  0.47567721    -0.65600
Ni1206     Ni  0.16493275  0.78444203  0.53485839     1.27400
Ni1207     Ni  0.18924887  0.84794794  0.50703945     1.26100
H1208       H  0.16534017  0.83234618  0.46861273     0.39600
O1209       O  0.20041034  0.78896610  0.02009010    -0.80400
O1210       O  0.20027559  0.88815818  0.96560179    -0.65100
O1211       O  0.18353881  0.83172499  0.01628495    -1.11700
C1212       C  0.10343570  0.77275847  0.96517963     1.06500
O1213       O  0.15330878  0.87996861  0.96898781    -0.78300
O1214       O  0.11456549  0.83689526  0.99905434    -0.65800
Ni1215     Ni  0.21508620  0.82837697  0.03127109     1.34900
C1216       C  0.11096191  0.82061825  0.01755692     0.85300
O1217       O  0.22563266  0.89069977  0.00923593    -0.78800
O1218       O  0.23067240  0.86785902  0.04268879    -0.89100
C1219       C  0.18034595  0.89598214  0.96174217     0.84800
O1220       O  0.24381647  0.84042308  0.00443985    -0.67300
O1221       O  0.10339228  0.79705694  0.96165824    -0.86600
C1222       C  0.24130165  0.84408982  0.98158626     0.85700
C1223       C  0.23525087  0.89085436  0.03090551     1.07200
H1224       H  0.16816523  0.82512213  0.95955498     0.39000
O1225       O  0.16094144  0.82978915  0.97467732    -1.09200
O1226       O  0.12260025  0.80344927  0.01845956    -0.65900
Ni1227     Ni  0.15338118  0.79969832  0.99835378     1.26300
O1228       O  0.22080695  0.84943043  0.97360516    -0.66100
O1229       O  0.12238854  0.76985858  0.97875764    -0.78400
C1230       C  0.17505298  0.76871510  0.02695947     0.85000
O1231       O  0.15129368  0.77044943  0.02178285    -0.65600
Ni1232     Ni  0.12953538  0.83793623  0.96622057     1.27400
Ni1233     Ni  0.19351359  0.86032448  0.99124370     1.26100
H1234       H  0.17375561  0.83692429  0.02956472     0.39600
N1235       N  0.49500237  0.59777518  0.21230747    -0.36100
N1236       N  0.44772222  0.57674022  0.25054375    -0.56600
N1237       N  0.49160118  0.61045848  0.28635184    -0.36100
N1238       N  0.03878380  0.63340757  0.24891013    -0.56600
C1239       C  0.47026574  0.58530818  0.19808195     0.27500
C1240       C  0.01915516  0.61311387  0.19713205     0.27500
C1241       C  0.46601454  0.60212496  0.29974672     0.27500
C1242       C  0.01320199  0.63315965  0.29834881     0.27500
C1243       C  0.43240857  0.55928466  0.23167869     0.36100
C1244       C  0.43186209  0.56425564  0.27152371     0.36100
C1245       C  0.05791100  0.63610128  0.22987524     0.36100
C1246       C  0.05515763  0.64119738  0.26978137     0.36100
C1247       C  0.47883298  0.59296703  0.17354888    -0.21400
C1248       C  0.00948633  0.60919359  0.17280352    -0.21400
C1249       C  0.47113734  0.62003345  0.32026518    -0.21400
C1250       C  0.00098710  0.64005708  0.31914714    -0.21400
C1251       C  0.40644818  0.53581429  0.24072306    -0.22400
C1252       C  0.40610840  0.53909180  0.26600739    -0.22400
C1253       C  0.08678702  0.64733121  0.23883965    -0.22400
C1254       C  0.08464718  0.64860195  0.26399329    -0.22400
C1255       C  0.44063042  0.56522093  0.20631547    -0.17800
C1256       C  0.04968027  0.62894633  0.20463458    -0.17800
C1257       C  0.04401723  0.64340311  0.29366629    -0.17800
C1258       C  0.43946686  0.57650509  0.29535488    -0.17800
H1259       H  0.46471652  0.58646841  0.15752310     0.15100
H1260       H  0.02270642  0.61644430  0.15585120     0.15100
H1261       H  0.45533246  0.61821893  0.33495261     0.15100
H1262       H  0.01283776  0.65647085  0.33298333     0.15100
H1263       H  0.38945046  0.51822947  0.23021887     0.13400
H1264       H  0.38861370  0.52511868  0.27882504     0.13400
H1265       H  0.10785517  0.65435142  0.22895661     0.13400
H1266       H  0.10325744  0.65507281  0.27623939     0.13400
H1267       H  0.49590821  0.59347959  0.23089951     0.26700
H1268       H  0.49514425  0.59792005  0.27275019     0.26700
N1269       N  0.40181328  0.90623251  0.28354100    -0.36100
N1270       N  0.37027017  0.91672228  0.24463113    -0.56600
N1271       N  0.39997421  0.89517219  0.20922145    -0.36100
N1272       N  0.43047783  0.88372663  0.24859237    -0.56600
C1273       C  0.39260075  0.92392991  0.29527419     0.27500
C1274       C  0.42299426  0.90535640  0.29780473     0.27500
C1275       C  0.37933753  0.89646139  0.19449544     0.27500
C1276       C  0.41236671  0.88072941  0.19634010     0.27500
C1277       C  0.35889397  0.92589030  0.26374709     0.36100
C1278       C  0.35898924  0.92124205  0.22368535     0.36100
C1279       C  0.44022527  0.87772074  0.26968104     0.36100
C1280       C  0.44144828  0.87389181  0.22978011     0.36100
C1281       C  0.40873621  0.93497004  0.31666997    -0.21400
C1282       C  0.42725946  0.92264831  0.31864342    -0.21400
C1283       C  0.37834554  0.88225008  0.17227997    -0.21400
C1284       C  0.39944494  0.87271327  0.17331256    -0.21400
C1285       C  0.33949593  0.93540009  0.25492409    -0.22400
C1286       C  0.34123505  0.93443874  0.22968027    -0.22400
C1287       C  0.45693485  0.86338852  0.26433662    -0.22400
C1288       C  0.45839079  0.86162353  0.23895870    -0.22400
C1289       C  0.36833158  0.92859570  0.28853473    -0.17800
C1290       C  0.43713053  0.88786999  0.29336214    -0.17800
C1291       C  0.43504275  0.87441961  0.20456511    -0.17800
C1292       C  0.36279163  0.91181632  0.19958966    -0.17800
H1293       H  0.40670367  0.94973152  0.32996554     0.15100
H1294       H  0.44193259  0.92606925  0.33392933     0.15100
H1295       H  0.36409817  0.87935479  0.15673228     0.15100
H1296       H  0.40439459  0.86082215  0.15886301     0.15100
H1297       H  0.32584951  0.94304283  0.26513135     0.13400
H1298       H  0.32988454  0.94227670  0.21761220     0.13400
H1299       H  0.46774438  0.85584711  0.27734680     0.13400
H1300       H  0.47000860  0.85181802  0.22856906     0.13400
H1301       H  0.39146252  0.89242647  0.26872246     0.26700
H1302       H  0.40764398  0.90647120  0.22571283     0.26700
C1303       C  0.31438824  0.98022016  0.41207871     0.02800
C1304       C  0.33190352  0.51072393  0.41387599     0.02800
C1305       C  0.35492634  0.52552665  0.39642872    -0.17700
C1306       C  0.35868514  0.51144224  0.37547318     0.02800
C1307       C  0.33877296  0.98133890  0.37194343     0.02800
C1308       C  0.31772205  0.96603683  0.39084034    -0.17700
H1309       H  0.30289804  0.94291044  0.38867899     0.04800
H1310       H  0.36868555  0.54892828  0.39823711     0.04800
N1311       N  0.10480183  0.99884578  0.29038115    -0.36100
N1312       N  0.11485548  0.53996039  0.25003933    -0.56600
N1313       N  0.10474592  0.99420991  0.21414457    -0.36100
N1314       N  0.09397677  0.95348921  0.25373677    -0.56600
C1315       C  0.10513670  0.52162912  0.30339388     0.27500
C1316       C  0.09053357  0.97436620  0.30465369     0.27500
C1317       C  0.10151582  0.51395304  0.20011568     0.27500
C1318       C  0.09005275  0.96806538  0.20272404     0.27500
C1319       C  0.12303663  0.55900955  0.26931065     0.36100
C1320       C  0.12264109  0.55599400  0.22881702     0.36100
C1321       C  0.09517807  0.94002767  0.27460802     0.36100
C1322       C  0.09692713  0.93816217  0.23438224     0.36100
C1323       C  0.09212263  0.51162000  0.32664846    -0.21400
C1324       C  0.08186561  0.98195422  0.32703391    -0.21400
C1325       C  0.08438792  0.50015399  0.17971886    -0.21400
C1326       C  0.07648439  0.97112084  0.18176132    -0.21400
C1327       C  0.13540867  0.58727231  0.26012462    -0.22400
C1328       C  0.13533901  0.58532684  0.23462379    -0.22400
C1329       C  0.10002849  0.91648123  0.26851251    -0.22400
C1330       C  0.10120265  0.91533567  0.24295743    -0.22400
C1331       C  0.11721822  0.55118592  0.29495771    -0.17800
C1332       C  0.08654513  0.94581968  0.29838811    -0.17800
C1333       C  0.09095192  0.94224726  0.20966424    -0.17800
C1334       C  0.11576286  0.54430317  0.20441742    -0.17800
H1335       H  0.08967774  0.52402125  0.34194853     0.15100
H1336       H  0.06959240  0.96793311  0.34241070     0.15100
H1337       H  0.07806213  0.50963717  0.16476052     0.15100
H1338       H  0.06299123  0.95433641  0.16880304     0.15100
H1339       H  0.14301379  0.60731512  0.27056094     0.13400
H1340       H  0.14273748  0.60339318  0.22186380     0.13400
H1341       H  0.10086193  0.90083737  0.28114760     0.13400
H1342       H  0.10330896  0.89873378  0.23200879     0.13400
H1343       H  0.11585774  0.00052395  0.27346443     0.26700
H1344       H  0.11938064  0.99902857  0.22879458     0.26700
C1345       C  0.30466388  0.98032473  0.09640692     0.02800
C1346       C  0.31910724  0.51068343  0.10003387     0.02800
C1347       C  0.33846450  0.52250027  0.12009123    -0.17700
C1348       C  0.34500226  0.50482619  0.13567103     0.02800
C1349       C  0.33029907  0.97418537  0.13157671     0.02800
C1350       C  0.30967749  0.96244266  0.11268943    -0.17700
H1351       H  0.29886452  0.93906465  0.10953546     0.04800
H1352       H  0.35032461  0.54597752  0.12242449     0.04800
C1353       C  0.17077065  0.67031050  0.40625766     0.02800
C1354       C  0.15386393  0.68571685  0.40817488     0.02800
C1355       C  0.13272976  0.68116106  0.39010435    -0.17700
C1356       C  0.12702327  0.66107371  0.37081561     0.02800
C1357       C  0.14257178  0.64422263  0.36914707     0.02800
C1358       C  0.16458939  0.64960849  0.38695202    -0.17700
H1359       H  0.17689139  0.63720449  0.38605849     0.04800
H1360       H  0.12000032  0.69318476  0.39127491     0.04800
C1361       C  0.18007814  0.65511550  0.08727923     0.02800
C1362       C  0.16691475  0.67395764  0.08848666     0.02800
C1363       C  0.14854743  0.67219959  0.10906364    -0.17700
C1364       C  0.13990729  0.65022688  0.12716584     0.02800
C1365       C  0.14944650  0.62835514  0.12376674     0.02800
C1366       C  0.17037709  0.63207296  0.10449328    -0.17700
H1367       H  0.17918729  0.61665637  0.10270475     0.04800
H1368       H  0.14120466  0.68868734  0.11086705     0.04800
C1369       C  0.47558151  0.81933747  0.41028284     0.02800
C1370       C  0.00611265  0.82605949  0.40902464     0.02800
C1371       C  0.02490620  0.84396810  0.38974530    -0.17700
C1372       C  0.01442221  0.85632379  0.37191544     0.02800
C1373       C  0.48383648  0.85019591  0.37374486     0.02800
C1374       C  0.46538132  0.83259494  0.39327901    -0.17700
H1375       H  0.44236591  0.82865241  0.39507958     0.04800
H1376       H  0.04830316  0.84898893  0.38905842     0.04800
C1377       C  0.03339488  0.82757642  0.09600518     0.02800
C1378       C  0.50202557  0.81703052  0.09527939     0.02800
C1379       C  0.48823533  0.82753329  0.11260404    -0.17700
C1380       C  0.50389619  0.84587063  0.13205112     0.02800
C1381       C  0.03488441  0.85472139  0.13421873     0.02800
C1382       C  0.04930240  0.84613933  0.11565846    -0.17700
H1383       H  0.07329479  0.85407238  0.11642360     0.04800
H1384       H  0.46435399  0.82024131  0.11149366     0.04800
C1385       C  0.03615473  0.87678050  0.35262742     0.00400
C1386       C  0.02946942  0.87219314  0.32727495    -0.11500
C1387       C  0.04543375  0.89411003  0.30954959     0.02600
C1388       C  0.07064071  0.92055558  0.31647460     0.00300
C1389       C  0.07946081  0.92338140  0.34133820    -0.11400
C1390       C  0.06189623  0.90261222  0.35943164     0.02500
H1391       H  0.51006098  0.85240116  0.32160920     0.15500
H1392       H  0.09914047  0.94289853  0.34701762     0.15500
C1393       C  0.06926191  0.90959820  0.38516230     0.37100
C1394       C  0.03424387  0.88955909  0.28466530     0.37000
N1395       N  0.07480524  0.91510129  0.40585970    -0.43200
N1396       N  0.52598969  0.88628455  0.26449819    -0.43200
C1397       C  0.08132441  0.91770652  0.19122927     0.00400
C1398       C  0.05775224  0.89022132  0.19770683    -0.11500
C1399       C  0.04449175  0.86829353  0.17989218     0.02600
C1400       C  0.05292221  0.87441519  0.15458994     0.00300
C1401       C  0.07818790  0.90085110  0.14839635    -0.11400
C1402       C  0.09289563  0.92207441  0.16651338     0.02500
H1403       H  0.04904558  0.88602379  0.21662896     0.15500
H1404       H  0.08572642  0.90547240  0.12916774     0.15500
C1405       C  0.11891070  0.94868487  0.15896183     0.37100
C1406       C  0.52280394  0.83959820  0.18817662     0.37000
N1407       N  0.13959025  0.97003509  0.15273424    -0.43200
N1408       N  0.50570579  0.81658876  0.19507273    -0.43200
C1409       C  0.12319395  0.57513722  0.31378342     0.00400
C1410       C  0.15280932  0.59673417  0.31773797    -0.11500
C1411       C  0.15933479  0.61985697  0.33460017     0.03000
C1412       C  0.13627248  0.62089666  0.34949139     0.00300
C1413       C  0.10685853  0.59851140  0.34605899    -0.11400
C1414       C  0.09999232  0.57716292  0.32749069     0.02500
H1415       H  0.17091911  0.59596570  0.30704156     0.15500
H1416       H  0.08896835  0.59717267  0.35808800     0.15500
C1417       C  0.06886417  0.55787806  0.32258090     0.37100
C1418       C  0.18986679  0.64268821  0.33566234     0.37000
N1419       N  0.04396843  0.54237892  0.31858570    -0.43200
N1420       N  0.21435689  0.66102933  0.33640399    -0.43200
C1421       C  0.13967213  0.60254481  0.14084746     0.00400
C1422       C  0.16164645  0.59828449  0.15298545    -0.11500
C1423       C  0.15413179  0.57930133  0.17336130     0.02600
C1424       C  0.12415038  0.56423543  0.18227681     0.00300
C1425       C  0.10188965  0.56663082  0.16883906    -0.11400
C1426       C  0.10926706  0.58440654  0.14759901     0.02500
H1427       H  0.18504102  0.61128706  0.14763856     0.15500
H1428       H  0.07864770  0.55452068  0.17491713     0.15500
C1429       C  0.08540147  0.58453661  0.13353915     0.37100
C1430       C  0.17779188  0.57613877  0.18509958     0.37000
N1431       N  0.06636503  0.58471860  0.12219244    -0.43200
N1432       N  0.19695388  0.57370967  0.19427734    -0.43200
C1433       C  0.47001876  0.86064472  0.35495266     0.00400
C1434       C  0.48461877  0.89005131  0.34749897    -0.11500
C1435       C  0.47553244  0.89903127  0.32650362     0.02600
C1436       C  0.44901672  0.87945848  0.31482101     0.00300
C1437       C  0.43287559  0.85085359  0.32352697    -0.11400
C1438       C  0.44348045  0.84102726  0.34292868     0.02500
H1439       H  0.00442247  0.90556277  0.35697830     0.15500
H1440       H  0.41245030  0.83585140  0.31443686     0.15500
C1441       C  0.42717612  0.81045241  0.34927771     0.37100
C1442       C  0.49439871  0.92779147  0.31654752     0.37000
N1443       N  0.41390673  0.78603353  0.35453214    -0.43200
N1444       N  0.00959270  0.95071635  0.30838132    -0.43200
C1445       C  0.45200975  0.86661501  0.18562056     0.00400
C1446       C  0.47539082  0.88913438  0.17215375    -0.11500
C1447       C  0.49224244  0.88295435  0.15424561     0.02600
C1448       C  0.48630476  0.85386314  0.15022105     0.00300
C1449       C  0.46205818  0.83131878  0.16299950    -0.11400
C1450       C  0.44491061  0.83744990  0.18054861     0.02500
H1451       H  0.48023701  0.91155313  0.17549648     0.15500
H1452       H  0.45681156  0.80882837  0.15947623     0.15500
C1453       C  0.42020354  0.81356475  0.19313190     0.37100
C1454       C  0.51429265  0.90648702  0.13932766     0.37000
N1455       N  0.40042529  0.79438771  0.20322444    -0.43200
N1456       N  0.53177138  0.92523895  0.12713904    -0.43200
C1457       C  0.35448764  0.93903050  0.30856278     0.00400
C1458       C  0.35316714  0.96526254  0.30580288    -0.11500
C1459       C  0.34274348  0.97636002  0.32522330     0.02600
C1460       C  0.34004728  0.96508479  0.34935118     0.00300
C1461       C  0.33991409  0.93813055  0.35205281    -0.11400
C1462       C  0.34510969  0.92420132  0.33157615     0.02500
H1463       H  0.36001112  0.97708121  0.28848726     0.15500
H1464       H  0.33638609  0.92815081  0.37021584     0.15500
C1465       C  0.34232290  0.89544259  0.33498070     0.37100
C1466       C  0.33289665  0.49758504  0.31955964     0.37000
N1467       N  0.34013989  0.87243415  0.33771132    -0.43200
N1468       N  0.32432122  0.51402057  0.31472454    -0.43200
C1469       C  0.35086604  0.92059126  0.17802795     0.00400
C1470       C  0.37089974  0.93665073  0.15873927    -0.11500
C1471       C  0.36235905  0.95062317  0.14119254     0.02600
C1472       C  0.33641299  0.95357923  0.14584371     0.00300
C1473       C  0.31450138  0.93401858  0.16236831    -0.11400
C1474       C  0.32094535  0.91571345  0.17709822     0.02500
H1475       H  0.39309094  0.93830798  0.15733934     0.15500
H1476       H  0.29256113  0.93297683  0.16362085     0.15500
C1477       C  0.29718033  0.89312820  0.19166069     0.37100
C1478       C  0.37884242  0.95951659  0.11787284     0.37000
N1479       N  0.27805900  0.87491650  0.20316545    -0.43200
N1480       N  0.39170119  0.96637777  0.09901480    -0.43200
C1481       C  0.41973499  0.56123888  0.31686898     0.00400
C1482       C  0.42369546  0.53934289  0.32863627    -0.11500
C1483       C  0.40497470  0.52366118  0.34856501     0.02600
C1484       C  0.38172322  0.52973825  0.35671628     0.00300
C1485       C  0.37919507  0.55304974  0.34594870    -0.11400
C1486       C  0.39758551  0.56837268  0.32579247     0.02500
H1487       H  0.44126089  0.53434785  0.32203803     0.15500
H1488       H  0.36155980  0.55806015  0.35232504     0.15500
C1489       C  0.39280138  0.59061374  0.31395938     0.37100
C1490       C  0.41006761  0.00166649  0.36049198     0.37000
N1491       N  0.38907580  0.60841026  0.30429327    -0.43200
N1492       N  0.41403298  0.98404415  0.37020862    -0.43200
C1493       C  0.36876005  0.51953137  0.15452955     0.00400
C1494       C  0.39619564  0.51904490  0.15154178    -0.11500
C1495       C  0.41894862  0.53205972  0.16876874     0.02600
C1496       C  0.41646367  0.54980405  0.18775814     0.00300
C1497       C  0.38975425  0.55210243  0.18985834    -0.11400
C1498       C  0.36575975  0.53653845  0.17399067     0.02500
H1499       H  0.40036784  0.50903452  0.13542718     0.15500
H1500       H  0.38737159  0.56555820  0.20440137     0.15500
C1501       C  0.33834336  0.53839972  0.17806402     0.37100
C1502       C  0.44408478  0.52601387  0.16689542     0.37000
N1503       N  0.31639193  0.03992300  0.18142774    -0.43200
N1504       N  0.46406271  0.52092060  0.16538152    -0.43200
C1505       C  0.10474551  0.65884804  0.35265968     0.00400
C1506       C  0.11328454  0.67929035  0.33336771    -0.11500
C1507       C  0.09245202  0.67713377  0.31573353     0.02600
C1508       C  0.06415653  0.65202688  0.31545892     0.00300
C1509       C  0.05509694  0.63345201  0.33626314    -0.11400
C1510       C  0.07436867  0.63858930  0.35581403     0.02500
H1511       H  0.13589826  0.69718497  0.33245994     0.15500
H1512       H  0.03287165  0.61497931  0.33742208     0.15500
C1513       C  0.06243224  0.62356125  0.37906956     0.37100
C1514       C  0.10037448  0.70077811  0.29840530     0.37000
N1515       N  0.05273747  0.61197792  0.39784691    -0.43200
N1516       N  0.10665112  0.71980036  0.28462288    -0.43200
C1517       C  0.07441992  0.63763558  0.18530702     0.00400
C1518       C  0.09695521  0.62929436  0.18821454    -0.11500
C1519       C  0.12215444  0.64044613  0.17242435     0.02600
C1520       C  0.12015660  0.65022421  0.14865652     0.00300
C1521       C  0.09783742  0.65898929  0.14551744    -0.11400
C1522       C  0.07729066  0.65565421  0.16485968     0.02500
H1523       H  0.09628220  0.61621249  0.20397511     0.15500
H1524       H  0.09634742  0.66870127  0.12831724     0.15500
C1525       C  0.06001652  0.67126374  0.16356175     0.37100
C1526       C  0.15030763  0.64444269  0.18183517     0.37000
N1527       N  0.04622560  0.68382825  0.16270912    -0.43200
N1528       N  0.17308007  0.64843157  0.18954119    -0.43200
C1529       C  0.17413259  0.74336887  0.04085087     0.00400
C1530       C  0.14794275  0.71643329  0.04133904    -0.11500
C1531       C  0.14620996  0.69284603  0.05519102     0.02600
C1532       C  0.17086690  0.69580758  0.06907636     0.00300
C1533       C  0.19730145  0.72220955  0.06802785    -0.11400
C1534       C  0.19928344  0.74576846  0.05407900     0.02500
H1535       H  0.12863975  0.71385593  0.03114763     0.15500
H1536       H  0.21603922  0.72487548  0.07909743     0.15500
C1537       C  0.22719613  0.77250726  0.05481969     0.37100
C1538       C  0.11851269  0.66586832  0.05564657     0.37000
N1539       N  0.24963607  0.79385383  0.05532905    -0.43200
N1540       N  0.09646394  0.64411749  0.05626147    -0.43200
C1541       C  0.09184925  0.82200727  0.03856600     0.00400
C1542       C  0.07222369  0.79662826  0.05175297    -0.11500
C1543       C  0.05209240  0.79734167  0.07009174     0.02600
C1544       C  0.05128293  0.82372887  0.07525733     0.00300
C1545       C  0.07097310  0.84890956  0.06220371    -0.11400
C1546       C  0.09139838  0.84846070  0.04447622     0.02500
H1547       H  0.07232439  0.77618883  0.04752047     0.15500
H1548       H  0.07105538  0.86943215  0.06654809     0.15500
C1549       C  0.11299186  0.87601779  0.03388692     0.37100
C1550       C  0.03298492  0.77100800  0.08357961     0.37000
N1551       N  0.13048399  0.89819211  0.02572259    -0.43200
N1552       N  0.01762301  0.74980877  0.09429776    -0.43200
C1553       C  0.25193881  0.91898993  0.04344126     0.00400
C1554       C  0.28272881  0.93564513  0.03852098    -0.11500
C1555       C  0.30024838  0.95908954  0.05394896     0.02600
C1556       C  0.28676050  0.96581284  0.07456100     0.00300
C1557       C  0.25558400  0.95093243  0.07788784    -0.11400
C1558       C  0.23807459  0.92771114  0.06239318     0.02500
H1559       H  0.29334726  0.92912987  0.02373964     0.15500
H1560       H  0.24523174  0.95568726  0.09395780     0.15500
C1561       C  0.20618012  0.91197706  0.06729012     0.37100
C1562       C  0.33232861  0.97406025  0.04986690     0.37000
N1563       N  0.18062138  0.89951917  0.07126801    -0.43200
N1564       N  0.35804107  0.98610331  0.04664926    -0.43200
C1565       C  0.15124301  0.74460987  0.46441604     0.00400
C1566       C  0.14382573  0.71576860  0.47071247    -0.11500
C1567       C  0.14575448  0.69650833  0.45312763     0.02600
C1568       C  0.15634171  0.70625492  0.42872072     0.00300
C1569       C  0.16430310  0.73531002  0.42258713    -0.11400
C1570       C  0.16169387  0.75436113  0.44006332     0.02500
H1571       H  0.13558579  0.70795871  0.48936179     0.15500
H1572       H  0.17183619  0.74290187  0.40378204     0.15500
C1573       C  0.17049604  0.78395200  0.43269402     0.37100
C1574       C  0.13465542  0.66651134  0.46042145     0.37000
N1575       N  0.17758706  0.80769976  0.42679097    -0.43200
N1576       N  0.12521666  0.64265153  0.46707166    -0.43200
C1577       C  0.06443650  0.81699938  0.45972324     0.00400
C1578       C  0.05267222  0.83630804  0.46497643    -0.11500
C1579       C  0.03146026  0.83773403  0.44977818     0.02600
C1580       C  0.02081013  0.81893576  0.42920648     0.00300
C1581       C  0.03069287  0.79805181  0.42495643    -0.11400
C1582       C  0.05239368  0.79691166  0.44000289     0.02500
H1583       H  0.06153975  0.85177940  0.48010012     0.15500
H1584       H  0.02306773  0.78408038  0.40877264     0.15500
C1585       C  0.06381153  0.77687019  0.43331772     0.37100
C1586       C  0.02362909  0.86091248  0.45406540     0.37000
N1587       N  0.07306012  0.76087321  0.42796625    -0.43200
N1588       N  0.51770046  0.87970106  0.45749526    -0.43200
C1589       C  0.24372291  0.92061493  0.46013675     0.00400
C1590       C  0.27004600  0.91814512  0.45686782    -0.11500
C1591       C  0.29418499  0.93873074  0.44273361     0.02600
C1592       C  0.29207775  0.96212861  0.43136190     0.00300
C1593       C  0.26666943  0.96578394  0.43618961    -0.11400
C1594       C  0.24290604  0.94571737  0.45091914     0.02500
H1595       H  0.27129557  0.89945794  0.46438238     0.15500
H1596       H  0.26479717  0.98366983  0.42773180     0.15500
C1597       C  0.21808657  0.95159478  0.45652258     0.37100
C1598       C  0.32064323  0.93495629  0.43955866     0.37000
N1599       N  0.19824338  0.95624770  0.46129323    -0.43200
N1600       N  0.34185805  0.93194916  0.43704443    -0.43200
C1601       C  0.08059602  0.74755839  0.95136332     0.00400
C1602       C  0.06232788  0.72076954  0.96319945    -0.11500
C1603       C  0.03902052  0.69786645  0.95035671     0.02600
C1604       C  0.03427606  0.70158977  0.92524696     0.00300
C1605       C  0.05278427  0.72811554  0.91351435    -0.11400
C1606       C  0.07537052  0.75101586  0.92623279     0.02500
H1607       H  0.06579572  0.71798518  0.98253674     0.15500
H1608       H  0.04949419  0.73092522  0.89411144     0.15500
C1609       C  0.09295585  0.77788011  0.91277794     0.37100
C1610       C  0.52050637  0.67082712  0.96313015     0.37000
N1611       N  0.10672602  0.79947223  0.90204618    -0.43200
N1612       N  0.50555244  0.64920135  0.97344643    -0.43200
C1613       C  0.19299087  0.97206228  0.92053213     0.00400
C1614       C  0.21224654  0.95978717  0.91590068    -0.11500
C1615       C  0.21021723  0.93639735  0.93024006     0.02600
C1616       C  0.18792310  0.92429659  0.94925946     0.00300
C1617       C  0.17014346  0.93806631  0.95487477    -0.11400
C1618       C  0.17269902  0.96180511  0.94088741     0.02500
H1619       H  0.22772588  0.96739513  0.90010083     0.15500
H1620       H  0.15332786  0.92956353  0.96969611     0.15500
C1621       C  0.15287337  0.97413240  0.94663026     0.37100
C1622       C  0.22969067  0.92389357  0.92370475     0.37000
N1623       N  0.13720421  0.98429122  0.95110783    -0.43200
N1624       N  0.24536255  0.91392719  0.91849971    -0.43200
C1625       C  0.29493153  0.83682469  0.58076043     0.00400
C1626       C  0.26990039  0.80985729  0.57728076    -0.11500
C1627       C  0.24639228  0.80735810  0.56268756     0.02600
C1628       C  0.24767233  0.83242112  0.55106688     0.00300
C1629       C  0.27299038  0.85947224  0.55446016    -0.11400
C1630       C  0.29657600  0.86182426  0.56904460     0.02500
H1631       H  0.26815195  0.79083598  0.58686624     0.15500
H1632       H  0.27445592  0.87878149  0.54563121     0.15500
C1633       C  0.32226480  0.89015150  0.57183051     0.37100
C1634       C  0.22066612  0.77885920  0.56127546     0.37000
N1635       N  0.34286471  0.91280674  0.57410908    -0.43200
N1636       N  0.20019083  0.75592325  0.56032296    -0.43200
C1637       C  0.30728508  0.83820277  0.93197091     0.00400
C1638       C  0.27748740  0.82770505  0.92448679    -0.11500
C1639       C  0.25565577  0.82927809  0.94021068     0.02600
C1640       C  0.26347658  0.84194881  0.96398764     0.00300
C1641       C  0.29304494  0.85166623  0.97173156    -0.11400
C1642       C  0.31487842  0.85017888  0.95595995     0.02500
H1643       H  0.27144852  0.81890728  0.90593939     0.15500
H1644       H  0.29941941  0.86137064  0.98996317     0.15500
C1645       C  0.34539213  0.86318724  0.96413403     0.37100
C1646       C  0.22526255  0.81692628  0.93175742     0.37000
N1647       N  0.36988441  0.87378210  0.97064362    -0.43200
N1648       N  0.20085380  0.80683504  0.92508440    -0.43200
C1649       C  0.17527144  0.91837139  0.53772666     0.00400
C1650       C  0.15561109  0.93048539  0.53542300    -0.11500
C1651       C  0.15956391  0.95533948  0.54873573     0.02600
C1652       C  0.18408159  0.96946150  0.56456295     0.00300
C1653       C  0.20425221  0.95798803  0.56654624    -0.11400
C1654       C  0.20015222  0.93280522  0.55330355     0.02500
H1655       H  0.13645801  0.92007590  0.52351508     0.15500
H1656       H  0.22247748  0.96793067  0.57941009     0.15500
C1657       C  0.22211012  0.92264457  0.55571579     0.37100
C1658       C  0.13661353  0.96443906  0.54744559     0.37000
N1659       N  0.23972252  0.91446420  0.55748337    -0.43200
N1660       N  0.11780983  0.97117675  0.54663660    -0.43200
C1661       C  0.02334680  0.68983808  0.57296886     0.00400
C1662       C  0.02691180  0.71835339  0.57308767    -0.11500
C1663       C  0.05051002  0.74063959  0.55971749     0.02600
C1664       C  0.07105065  0.73445924  0.54604625     0.00300
C1665       C  0.06640479  0.70561875  0.54465218    -0.11400
C1666       C  0.04260325  0.68328563  0.55777252     0.02500
H1667       H  0.01260401  0.72369596  0.58508848     0.15500
H1668       H  0.08199917  0.70073198  0.53393054     0.15500
C1669       C  0.03902562  0.65401324  0.55625810     0.37100
C1670       C  0.05473061  0.77004997  0.56216106     0.37000
N1671       N  0.03602146  0.63050600  0.55522365    -0.43200
N1672       N  0.05804572  0.79358812  0.56429778    -0.43200
C1673       C  0.44288897  0.87673721  0.81693424     0.00400
C1674       C  0.42380225  0.84757991  0.82328071    -0.11500
C1675       C  0.40352241  0.84057272  0.84350149     0.02600
C1676       C  0.40183787  0.86302916  0.85752794     0.00300
C1677       C  0.42204658  0.89217388  0.85184759    -0.11400
C1678       C  0.44228147  0.89913351  0.83165724     0.02500
H1679       H  0.42438462  0.83031507  0.81211818     0.15500
H1680       H  0.42127109  0.90956062  0.86269781     0.15500
C1681       C  0.46159436  0.92944324  0.82585781     0.37100
C1682       C  0.38321839  0.81024480  0.84847035     0.37000
N1683       N  0.47704319  0.95373290  0.82116278    -0.43200
N1684       N  0.36674064  0.78606297  0.85269130    -0.43200
C1685       C  0.13952680  0.96895040  0.84455531     0.00400
C1686       C  0.14753827  0.96161767  0.82141335    -0.11500
C1687       C  0.12559230  0.94626877  0.80369030     0.02600
C1688       C  0.09556911  0.94101016  0.80796352     0.00300
C1689       C  0.08784235  0.94724554  0.83177179    -0.11400
C1690       C  0.10889543  0.95858128  0.85047821     0.02500
H1691       H  0.17082605  0.96758683  0.81732050     0.15500
H1692       H  0.06521977  0.94351496  0.83591230     0.15500
C1693       C  0.09886962  0.46203494  0.87507793     0.37100
C1694       C  0.13435830  0.93553293  0.78178472     0.37000
N1695       N  0.09076344  0.46493363  0.89469421    -0.43200
N1696       N  0.14148277  0.92687659  0.76431952    -0.43200
C1697       C  0.08816002  0.94921748  0.67872255     0.00400
C1698       C  0.08637339  0.96927154  0.66246489    -0.11500
C1699       C  0.10762688  0.98195616  0.64318797     0.02600
C1700       C  0.13132168  0.97486193  0.64030755     0.00300
C1701       C  0.13175935  0.95325420  0.65538906    -0.11400
C1702       C  0.11078693  0.94084416  0.67480271     0.02500
H1703       H  0.06856891  0.97523330  0.66505577     0.15500
H1704       H  0.14961515  0.94734172  0.65288512     0.15500
C1705       C  0.11350132  0.92025343  0.69092987     0.37100
C1706       C  0.10465434  0.50192567  0.62644010     0.37000
N1707       N  0.11594405  0.90399948  0.70399056    -0.43200
N1708       N  0.10245700  0.51791450  0.61288617    -0.43200
C1709       C  0.43327827  0.87728509  0.68676543     0.00400
C1710       C  0.43135430  0.89835225  0.67189491    -0.11500
C1711       C  0.40913353  0.89024819  0.65405651     0.02600
C1712       C  0.38799570  0.86062104  0.65113891     0.00300
C1713       C  0.39140655  0.83941922  0.66472144    -0.11400
C1714       C  0.41351378  0.84756518  0.68269566     0.02500
H1715       H  0.44725866  0.92116778  0.67426837     0.15500
H1716       H  0.37576661  0.81654879  0.66221078     0.15500
C1717       C  0.41541945  0.82521808  0.69705248     0.37100
C1718       C  0.40875898  0.91252274  0.63848764     0.37000
N1719       N  0.41714117  0.80756078  0.70879219    -0.43200
N1720       N  0.40810309  0.93005462  0.62582140    -0.43200
C1721       C  0.04926223  0.62187800  0.81361050     0.00400
C1722       C  0.05902388  0.65157043  0.81808284    -0.11500
C1723       C  0.04534217  0.66061405  0.83663011     0.02600
C1724       C  0.02231843  0.63975815  0.85189986     0.00300
C1725       C  0.01263801  0.60996606  0.84751270    -0.11400
C1726       C  0.02542426  0.60090446  0.82814999     0.02500
H1727       H  0.07694403  0.66768845  0.80660176     0.15500
H1728       H  0.49464232  0.59380730  0.85890259     0.15500
C1729       C  0.51351123  0.57008896  0.82332511     0.37100
C1730       C  0.05419475  0.69132805  0.83878681     0.37000
N1731       N  0.50375661  0.54535991  0.81950273    -0.43200
N1732       N  0.06103553  0.71589026  0.84047543    -0.43200
C1733       C  0.15054903  0.56500012  0.80872574     0.00400
C1734       C  0.18059701  0.57607138  0.81553111    -0.11500
C1735       C  0.18915070  0.56089678  0.83234533     0.02600
C1736       C  0.16707240  0.53529914  0.84424122     0.00300
C1737       C  0.13701696  0.52648122  0.83909520    -0.11400
C1738       C  0.12882529  0.53926996  0.82029288     0.02500
H1739       H  0.19742275  0.59648238  0.80764851     0.15500
H1740       H  0.11948569  0.51007076  0.85018002     0.15500
C1741       C  0.09764908  0.52578067  0.81363100     0.37100
C1742       C  0.22059505  0.57251405  0.83739596     0.37000
N1743       N  0.07270805  0.51505314  0.80831517    -0.43200
N1744       N  0.24576071  0.58206639  0.84169913    -0.43200
C1745       C  0.17206877  0.53875044  0.64524245     0.00400
C1746       C  0.16799301  0.56296017  0.63937112    -0.11500
C1747       C  0.15849881  0.57655721  0.65758982     0.02600
C1748       C  0.15051054  0.56443836  0.68171042     0.00300
C1749       C  0.15615433  0.54114598  0.68764516    -0.11400
C1750       C  0.16909718  0.53003238  0.67024621     0.02500
H1751       H  0.17140242  0.57077542  0.62039668     0.15500
H1752       H  0.15127521  0.53212765  0.70621116     0.15500
C1753       C  0.18034883  0.51076296  0.67866965     0.37100
C1754       C  0.15697501  0.60271184  0.65101667     0.37000
N1755       N  0.18980100  0.99573342  0.68558106    -0.43200
N1756       N  0.15572275  0.62366440  0.64575330    -0.43200
C1757       C  0.01681519  0.63340528  0.64860981     0.00400
C1758       C  0.00396981  0.60364798  0.65480455    -0.11500
C1759       C  0.01641683  0.59376407  0.67296409     0.02600
C1760       C  0.04340501  0.61351029  0.68406282     0.00300
C1761       C  0.05700001  0.64295440  0.67710160    -0.11400
C1762       C  0.04384001  0.65311934  0.65987322     0.02500
H1763       H  0.98358721  0.58817948  0.64597871     0.15500
H1764       H  0.07758045  0.65824048  0.68581975     0.15500
C1765       C  0.05775314  0.68410488  0.65515411     0.37100
C1766       C  0.00063125  0.56352375  0.68030213     0.37000
N1767       N  0.06890285  0.70892231  0.65135562    -0.43200
N1768       N  0.98770829  0.53922147  0.68598407    -0.43200
C1769       C  0.42235975  0.58060760  0.81569090     0.00400
C1770       C  0.41310478  0.57558673  0.84076250    -0.11500
C1771       C  0.43030417  0.59482154  0.85921595     0.02600
C1772       C  0.45626133  0.62077520  0.85254168     0.00300
C1773       C  0.46397927  0.62701032  0.82732430    -0.11400
C1774       C  0.44827158  0.60662214  0.80906487     0.02500
H1775       H  0.39346369  0.55549987  0.84606338     0.15500
H1776       H  0.98356363  0.64708895  0.82198921     0.15500
C1777       C  0.46076542  0.61190539  0.78413127     0.37100
C1778       C  0.42212782  0.58629209  0.88484546     0.37000
N1779       N  0.97055986  0.61601530  0.76407009    -0.43200
N1780       N  0.41580074  0.57955502  0.90541301    -0.43200
C1781       C  0.35873929  0.88810864  0.85481542     0.00400
C1782       C  0.35958723  0.91443487  0.86247079    -0.11500
C1783       C  0.36039317  0.93465719  0.84525062     0.02600
C1784       C  0.36332751  0.93012067  0.81960870     0.00300
C1785       C  0.36318950  0.90400706  0.81199295    -0.11400
C1786       C  0.35898941  0.88235547  0.82916340     0.02500
H1787       H  0.35867627  0.91883793  0.88211870     0.15500
H1788       H  0.36527514  0.89998101  0.79243400     0.15500
C1789       C  0.35263312  0.85393567  0.81976730     0.37100
C1790       C  0.35692898  0.95918947  0.85450612     0.37000
N1791       N  0.34702938  0.83122827  0.81170602    -0.43200
N1792       N  0.35425173  0.97887855  0.86196217    -0.43200
C1793       C  0.41649371  0.57631826  0.69118786     0.00400
C1794       C  0.44194275  0.60228344  0.69764743    -0.11500
C1795       C  0.45833516  0.62351213  0.67979196     0.02600
C1796       C  0.45122472  0.61759911  0.65454444     0.00300
C1797       C  0.42516578  0.59234835  0.64821039    -0.11400
C1798       C  0.40721921  0.57245260  0.66632548     0.02500
H1799       H  0.44916853  0.60603387  0.71667123     0.15500
H1800       H  0.41887542  0.58800269  0.62892984     0.15500
C1801       C  0.37927963  0.54852844  0.65879986     0.37100
C1802       C  0.98159596  0.65133608  0.68793085     0.37000
N1803       N  0.35686554  0.52962709  0.65242822    -0.43200
N1804       N  0.99986083  0.67371266  0.69471070    -0.43200
C1805       C  0.34199004  0.88275061  0.65871840     0.00400
C1806       C  0.33875501  0.90739533  0.65259865    -0.11500
C1807       C  0.33902842  0.92677003  0.67075510     0.02600
C1808       C  0.34656920  0.92404000  0.69521686     0.00300
C1809       C  0.34935144  0.89920733  0.70154382    -0.11400
C1810       C  0.34503954  0.87769857  0.68392260     0.02500
H1811       H  0.33563705  0.91149271  0.63349555     0.15500
H1812       H  0.35463717  0.89635394  0.72033433     0.15500
C1813       C  0.34173484  0.85015378  0.69264078     0.37100
C1814       C  0.33106864  0.94898112  0.66378457     0.37000
N1815       N  0.33866212  0.82807641  0.70009675    -0.43200
N1816       N  0.32428905  0.96646244  0.65809109    -0.43200
C1817       C  0.41393129  0.66770770  0.54307668     0.00400
C1818       C  0.42238410  0.64562308  0.54026302    -0.11500
C1819       C  0.44341502  0.64436580  0.55604248     0.02600
C1820       C  0.45570684  0.66501296  0.57525437     0.00300
C1821       C  0.44714394  0.68690552  0.57816666    -0.11400
C1822       C  0.42675622  0.68866141  0.56213744     0.02500
H1823       H  0.41284826  0.62961813  0.52561654     0.15500
H1824       H  0.45583507  0.70219544  0.59343091     0.15500
C1825       C  0.41825897  0.71137175  0.56651131     0.37100
C1826       C  0.45171085  0.62140750  0.55267894     0.37000
N1827       N  0.41152592  0.72959405  0.57010450    -0.43200
N1828       N  0.45869390  0.60321801  0.55014324    -0.43200
C1829       C  0.32322520  0.52933181  0.42922852     0.00400
C1830       C  0.33552384  0.53860255  0.45264184    -0.11500
C1831       C  0.33444544  0.56243837  0.46434935     0.02600
C1832       C  0.32130697  0.57759905  0.45223075     0.00300
C1833       C  0.30783677  0.56713630  0.42923087    -0.11400
C1834       C  0.30861030  0.54329690  0.41779802     0.02500
H1835       H  0.34705069  0.52801783  0.46125756     0.15500
H1836       H  0.29725630  0.57806525  0.41969968     0.15500
C1837       C  0.29575596  0.53447035  0.39353379     0.37100
C1838       C  0.34691812  0.57070349  0.48868112     0.37000
N1839       N  0.28561363  0.52727661  0.37410270    -0.43200
N1840       N  0.35695090  0.57730994  0.50819397    -0.43200
C1841       C  0.22052992  0.53816588  0.56481271     0.00400
C1842       C  0.25162544  0.54864837  0.56598517    -0.11500
C1843       C  0.27177913  0.57208752  0.55101586     0.02600
C1844       C  0.26086811  0.58551867  0.53422199     0.00300
C1845       C  0.22959195  0.57471803  0.53317728    -0.11400
C1846       C  0.20965455  0.55174751  0.54834256     0.02500
H1847       H  0.26024484  0.53929678  0.57946643     0.15500
H1848       H  0.22049022  0.58469796  0.52074038     0.15500
C1849       C  0.17821468  0.54396782  0.54785258     0.37100
C1850       C  0.30337678  0.58185832  0.55361424     0.37000
N1851       N  0.15318882  0.53831159  0.54742787    -0.43200
N1852       N  0.32865667  0.58957439  0.55608716    -0.43200
C1853       C  0.40427855  0.75955293  0.45946896     0.00400
C1854       C  0.41040801  0.74974289  0.43668192    -0.11500
C1855       C  0.43466210  0.76849206  0.42120968     0.02600
C1856       C  0.45301163  0.79786721  0.42810310     0.00300
C1857       C  0.44638170  0.80783853  0.45049835    -0.11400
C1858       C  0.42264917  0.78906520  0.46620237     0.02500
H1859       H  0.39704594  0.72711194  0.43143250     0.15500
H1860       H  0.45944930  0.83054695  0.45556307     0.15500
C1861       C  0.41710359  0.80098310  0.48891810     0.37100
C1862       C  0.44086790  0.75693963  0.39858437     0.37000
N1863       N  0.41279715  0.81076520  0.50704350    -0.43200
N1864       N  0.44606726  0.74758320  0.38059186    -0.43200
C1865       C  0.24298053  0.67946535  0.45335351     0.00400
C1866       C  0.21512049  0.65391004  0.45362457    -0.11500
C1867       C  0.19156365  0.65098128  0.43891738     0.02600
C1868       C  0.19450028  0.67441997  0.42418442     0.00300
C1869       C  0.22161342  0.70067845  0.42466608    -0.11400
C1870       C  0.24594221  0.70323521  0.43878919     0.02500
H1871       H  0.21185091  0.63525390  0.46462792     0.15500
H1872       H  0.22428466  0.71869013  0.41304895     0.15500
C1873       C  0.27394903  0.72977670  0.43704365     0.37100
C1874       C  0.16486863  0.62309083  0.43859284     0.37000
N1875       N  0.29659451  0.75087950  0.43562840    -0.43200
N1876       N  0.14349257  0.60076606  0.43823209    -0.43200
C1877       C  0.32882255  0.75969559  0.54559471     0.00400
C1878       C  0.32103601  0.75255956  0.57066835    -0.11500
C1879       C  0.32088033  0.77312628  0.58752331     0.02600
C1880       C  0.32934281  0.80175942  0.57950431     0.00300
C1881       C  0.33468875  0.80830156  0.55404606    -0.11400
C1882       C  0.33418489  0.78732729  0.53698733     0.02500
H1883       H  0.31639442  0.73116501  0.57732373     0.15500
H1884       H  0.34054143  0.83010162  0.54768993     0.15500
C1885       C  0.34079746  0.79510704  0.51112679     0.37100
C1886       C  0.31281094  0.76465742  0.61317750     0.37000
N1887       N  0.34587612  0.80135356  0.49036358    -0.43200
N1888       N  0.30635926  0.75808759  0.63375969    -0.43200
C1889       C  0.25521883  0.58516793  0.95448912     0.00400
C1890       C  0.22612741  0.58069079  0.95043076    -0.11500
C1891       C  0.20643313  0.55761257  0.93571887     0.02600
C1892       C  0.21599390  0.53877158  0.92382502     0.00300
C1893       C  0.24440706  0.54188641  0.92938612    -0.11400
C1894       C  0.26389156  0.56470150  0.94481806     0.02500
H1895       H  0.21898040  0.59579646  0.95832595     0.15500
H1896       H  0.25211933  0.52767919  0.92047755     0.15500
C1897       C  0.29339438  0.56794865  0.94897374     0.37100
C1898       C  0.17681342  0.55453164  0.93235072     0.37000
N1899       N  0.31705766  0.57058538  0.95236185    -0.43200
N1900       N  0.15318015  0.55231620  0.92970539    -0.43200
C1901       C  0.24798901  0.65579108  0.03610353     0.00400
C1902       C  0.25495383  0.66472167  0.06080782    -0.11500
C1903       C  0.23370576  0.66669726  0.07707398     0.02600
C1904       C  0.20440541  0.65866550  0.06910029     0.00300
C1905       C  0.19748826  0.65019304  0.04438476    -0.11400
C1906       C  0.21891504  0.64897401  0.02787483     0.02500
H1907       H  0.27733012  0.67105797  0.06721861     0.15500
H1908       H  0.17503501  0.64381143  0.03812573     0.15500
C1909       C  0.20996625  0.63977531  0.00273277     0.37100
C1910       C  0.24276659  0.67810156  0.10169991     0.37000
N1911       N  0.20256092  0.63254727  0.98260338    -0.43200
N1912       N  0.25018046  0.68769220  0.12130367    -0.43200
C1913       C  0.42432685  0.67797788  0.96506286     0.00400
C1914       C  0.44450410  0.70283657  0.95164917    -0.11500
C1915       C  0.46483743  0.70118479  0.93410639     0.02600
C1916       C  0.46536681  0.67448469  0.93024206     0.00300
C1917       C  0.44517003  0.64984251  0.94359790    -0.11400
C1918       C  0.42440306  0.65113306  0.96036218     0.02500
H1919       H  0.44454414  0.72350260  0.95500323     0.15500
H1920       H  0.44470923  0.62901240  0.93995266     0.15500
C1921       C  0.40201066  0.62396433  0.97097494     0.37100
C1922       C  0.48426033  0.72675907  0.91987990     0.37000
N1923       N  0.38399422  0.60186824  0.97885049    -0.43200
N1924       N  0.49988785  0.74728801  0.90848266    -0.43200
C1925       C  0.32826097  0.57680443  0.04841567     0.00400
C1926       C  0.30032568  0.55991848  0.06037248    -0.11500
C1927       C  0.29596946  0.53711602  0.07647643     0.02600
C1928       C  0.31987565  0.53100385  0.08074332     0.00300
C1929       C  0.34694749  0.54641147  0.06765276    -0.11400
C1930       C  0.35141745  0.56891755  0.05155880     0.02500
H1931       H  0.28219413  0.56523979  0.05796691     0.15500
H1932       H  0.36517725  0.54134413  0.07069843     0.15500
C1933       C  0.38057758  0.58376502  0.03945227     0.37100
C1934       C  0.26731293  0.52132842  0.08907803     0.37000
N1935       N  0.40415289  0.59540638  0.03010411    -0.43200
N1936       N  0.24409626  0.00884419  0.09888503    -0.43200
C1937       C  0.43392698  0.75011383  0.05172917     0.00400
C1938       C  0.43543281  0.74674521  0.07733564    -0.11500
C1939       C  0.45899863  0.76720288  0.09102829     0.02600
C1940       C  0.48142426  0.79259163  0.07941867     0.00300
C1941       C  0.48071906  0.79575250  0.05359949    -0.11400
C1942       C  0.45747597  0.77427105  0.03961369     0.02500
H1943       H  0.41819646  0.72763856  0.08671232     0.15500
H1944       H  0.49807883  0.81493354  0.04446069     0.15500
C1945       C  0.45938143  0.77607594  0.01289531     0.37100
C1946       C  0.45961612  0.76173459  0.11721784     0.37000
N1947       N  0.46098003  0.77689699  0.99143742    -0.43200
N1948       N  0.46025723  0.75753510  0.13817578    -0.43200
C1949       C  0.34681197  0.76094227  0.96062740     0.00400
C1950       C  0.32263519  0.75679223  0.94574858    -0.11500
C1951       C  0.32288754  0.77957218  0.93197889     0.02600
C1952       C  0.34766327  0.80760364  0.93291939     0.00300
C1953       C  0.37164697  0.81209790  0.94820829    -0.11400
C1954       C  0.37130992  0.78918410  0.96216933     0.02500
H1955       H  0.30359227  0.73526457  0.94425220     0.15500
H1956       H  0.39096387  0.83352212  0.94886753     0.15500
C1957       C  0.39569331  0.79559913  0.97857294     0.37100
C1958       C  0.29832798  0.77294811  0.91565497     0.37000
N1959       N  0.41517055  0.80117062  0.99194040    -0.43200
N1960       N  0.27860603  0.76746358  0.90257094    -0.43200
O1961       O  0.85984734  0.12053354  0.02680505    -0.80400
O1962       O  0.86691344  0.23147533  0.97942985    -0.65100
O1963       O  0.85169893  0.16967342  0.02529445    -1.11700
C1964       C  0.77624989  0.11243827  0.96722159     1.06500
O1965       O  0.81815915  0.21603945  0.98097566    -0.78300
O1966       O  0.77277728  0.16654542  0.99715378    -0.65800
Ni1967     Ni  0.88206932  0.16075920  0.03558853     1.34900
C1968       C  0.77180323  0.15645083  0.01858781     0.85300
O1969       O  0.89402931  0.22934563  0.02233192    -0.78800
O1970       O  0.90663965  0.20032544  0.04472500    -0.89100
C1971       C  0.84429733  0.23512177  0.97440303     0.84800
O1972       O  0.90302820  0.16639184  0.00492067    -0.67300
O1973       O  0.77991086  0.13661205  0.95812446    -0.86600
C1974       C  0.90498584  0.18019573  0.98521347     0.85700
C1975       C  0.91007766  0.22532624  0.03843721     1.07200
H1976       H  0.83988555  0.16566274  0.96959924     0.39000
O1977       O  0.83056201  0.17041094  0.98355619    -1.09200
O1978       O  0.79026971  0.14753209  0.02531586    -0.65900
Ni1979     Ni  0.81986903  0.13987512  0.00692379     1.26300
O1980       O  0.89116709  0.19510778  0.98227153    -0.66100
O1981       O  0.78919249  0.11065729  0.98671780    -0.78400
C1982       C  0.83365075  0.10366697  0.03475516     0.85000
O1983       O  0.81273634  0.11011102  0.03090832    -0.65600
Ni1984     Ni  0.79998174  0.17643032  0.96964844     1.27400
Ni1985     Ni  0.86184146  0.20091877  0.00234775     1.26100
H1986       H  0.84329637  0.17398563  0.04011739     0.39600
O1987       O  0.89909817  0.19421902  0.51658882    -0.80400
O1988       O  0.79444690  0.19964475  0.46861536    -0.65100
O1989       O  0.84151519  0.18491061  0.51574584    -1.11700
C1990       C  0.81936425  0.10308104  0.46323678     1.06500
O1991       O  0.76228984  0.15475381  0.47773734    -0.78300
O1992       O  0.76761402  0.11029213  0.49648252    -0.65800
Ni1993     Ni  0.87784975  0.21455459  0.52776432     1.34900
C1994       C  0.78030492  0.10857606  0.51583975     0.85300
O1995       O  0.82201228  0.22755160  0.51127469    -0.78800
O1996       O  0.85748826  0.23561003  0.53941791    -0.89100
C1997       C  0.76796692  0.17847566  0.46712712     0.84800
O1998       O  0.89240156  0.23877064  0.49916686    -0.67300
O1999       O  0.79780053  0.10733930  0.45595446    -0.86600
C2000       C  0.88238841  0.23828651  0.47778367     0.85700
C2001       C  0.83658347  0.23994029  0.53081268     1.07200
H2002       H  0.83065559  0.16774039  0.46014149     0.39000
O2003       O  0.81884680  0.16126506  0.47533702    -1.09200
O2004       O  0.80817804  0.12494893  0.51931219    -0.65900
Ni2005     Ni  0.84130681  0.15222491  0.49820605     1.26300
O2006       O  0.85539037  0.22063474  0.47196086    -0.66100
O2007       O  0.83853881  0.11923328  0.47922573    -0.78400
C2008       C  0.89262491  0.16961302  0.52584834     0.85000
O2009       O  0.86754845  0.14772224  0.52116469    -0.65600
Ni2010     Ni  0.78078380  0.13180746  0.46654814     1.27400
Ni2011     Ni  0.82014203  0.19468186  0.49225247     1.26100
H2012       H  0.82842720  0.17735903  0.53017615     0.39600
N2013       N  0.87512223  0.00060594  0.71800407    -0.36100
N2014       N  0.89623020  0.04545114  0.75448296    -0.56600
N2015       N  0.88345270  0.00372742  0.79316999    -0.36100
N2016       N  0.86067718  0.45855035  0.75717799    -0.56600
C2017       C  0.89528681  0.02414862  0.70520377     0.27500
C2018       C  0.87405579  0.47680957  0.70672901     0.27500
C2019       C  0.90435694  0.02890079  0.80282959     0.27500
C2020       C  0.88644058  0.48183801  0.80382541     0.27500
C2021       C  0.89575146  0.06047698  0.73450193     0.36100
C2022       C  0.89784396  0.06175253  0.77453351     0.36100
C2023       C  0.84439215  0.44142678  0.73862751     0.36100
C2024       C  0.85042006  0.44300594  0.77824587     0.36100
C2025       C  0.90770252  0.01523614  0.68579016    -0.21400
C2026       C  0.89416663  0.48522455  0.68670411    -0.21400
C2027       C  0.92132121  0.02311309  0.81953624    -0.21400
C2028       C  0.91017370  0.49326388  0.81995251    -0.21400
C2029       C  0.89548357  0.08604884  0.74187287    -0.22400
C2030       C  0.89650407  0.08672152  0.76745804    -0.22400
C2031       C  0.82234380  0.41514774  0.74804030    -0.22400
C2032       C  0.82624993  0.41611780  0.77332772    -0.22400
C2033       C  0.90102312  0.05307334  0.71031768    -0.17800
C2034       C  0.85383646  0.44788565  0.71365590    -0.17800
C2035       C  0.86619388  0.45203499  0.80052339    -0.17800
C2036       C  0.90685727  0.05654652  0.79762348    -0.17800
H2037       H  0.92455939  0.02885794  0.67228884     0.15100
H2038       H  0.89855661  0.47122945  0.67405423     0.15100
H2039       H  0.93971424  0.03872821  0.83031608     0.15100
H2040       H  0.91811059  0.48131985  0.83126360     0.15100
H2041       H  0.89626713  0.10311417  0.73005280     0.13400
H2042       H  0.89856476  0.10456217  0.77925715     0.13400
H2043       H  0.80637917  0.39666310  0.73766215     0.13400
H2044       H  0.81370618  0.39862043  0.78633247     0.13400
H2045       H  0.86056444  0.00050423  0.73217590     0.26700
H2046       H  0.86587517  0.00151134  0.78208170     0.26700
N2047       N  0.59872491  0.09238187  0.70919240    -0.36100
N2048       N  0.63379653  0.08218875  0.74608613    -0.56600
N2049       N  0.60441244  0.09935067  0.78521730    -0.36100
N2050       N  0.56635137  0.10589093  0.74847209    -0.56600
C2051       C  0.61034079  0.07770139  0.69566677     0.27500
C2052       C  0.57520819  0.09101246  0.69667118     0.27500
C2053       C  0.62004755  0.09002266  0.79932437     0.27500
C2054       C  0.58549210  0.10409776  0.80058468     0.27500
C2055       C  0.64884584  0.08134463  0.72526349     0.36100
C2056       C  0.65010952  0.08194647  0.76547572     0.36100
C2057       C  0.55484606  0.11246642  0.72860363     0.36100
C2058       C  0.55765696  0.11601679  0.76865502     0.36100
C2059       C  0.59365915  0.06658334  0.67449126    -0.21400
C2060       C  0.57206731  0.07565001  0.67480428    -0.21400
C2061       C  0.61210291  0.09050879  0.82411758    -0.21400
C2062       C  0.59033832  0.09926440  0.82490083    -0.21400
C2063       C  0.67546519  0.08169814  0.73150461    -0.22400
C2064       C  0.67568721  0.08090050  0.75687970    -0.22400
C2065       C  0.53815400  0.12617630  0.73623877    -0.22400
C2066       C  0.53992288  0.12838269  0.76157463    -0.22400
C2067       C  0.63671825  0.07575067  0.70119423    -0.17800
C2068       C  0.55776944  0.10481346  0.70379079    -0.17800
C2069       C  0.56452456  0.11346833  0.79351649    -0.17800
C2070       C  0.64104673  0.08067570  0.79068504    -0.17800
H2071       H  0.59699902  0.05373796  0.65997100     0.15100
H2072       H  0.55587080  0.07121906  0.66052609     0.15100
H2073       H  0.62098657  0.08503960  0.84010998     0.15100
H2074       H  0.57933533  0.10168709  0.84159717     0.15100
H2075       H  0.69245060  0.08123357  0.71911657     0.13400
H2076       H  0.69298588  0.07981298  0.76742768     0.13400
H2077       H  0.52567200  0.13351138  0.72482634     0.13400
H2078       H  0.52943511  0.13814710  0.77340675     0.13400
H2079       H  0.60849318  0.10562091  0.72442657     0.26700
H2080       H  0.60726773  0.10342567  0.76636657     0.26700
N2081       N  0.51715255  0.40693571  0.78416565    -0.36100
N2082       N  0.96828795  0.38811744  0.74957118    -0.56600
N2083       N  0.51210872  0.41168708  0.70953772    -0.36100
N2084       N  0.56108945  0.42833334  0.74427892    -0.56600
C2085       C  0.99320821  0.38923287  0.79846008     0.27500
C2086       C  0.54196117  0.40915165  0.79516026     0.27500
C2087       C  0.98703602  0.39568091  0.69661049     0.27500
C2088       C  0.53576348  0.41798466  0.69397398     0.27500
C2089       C  0.95264591  0.38481455  0.77108342     0.36100
C2090       C  0.94984124  0.38586645  0.73100202     0.36100
C2091       C  0.57851671  0.44131484  0.76394920     0.36100
C2092       C  0.57571424  0.44435504  0.72411358     0.36100
C2093       C  0.00270456  0.37970371  0.81861003    -0.21400
C2094       C  0.53341255  0.39171061  0.81622423    -0.21400
C2095       C  0.99489018  0.39161972  0.67256683    -0.21400
C2096       C  0.52569874  0.40571971  0.67090235    -0.21400
C2097       C  0.92391607  0.38012031  0.76619289    -0.22400
C2098       C  0.92209563  0.38065293  0.74073965    -0.22400
C2099       C  0.60407815  0.46608148  0.75622039    -0.22400
C2100       C  0.60259088  0.46758453  0.73086951    -0.22400
C2101       C  0.96341811  0.38369003  0.79480002    -0.17800
C2102       C  0.57185635  0.42964846  0.78833272    -0.17800
C2103       C  0.56590092  0.43689003  0.69955126    -0.17800
C2104       C  0.95739034  0.38671706  0.70541548    -0.17800
H2105       H  0.98895620  0.36578218  0.83359043     0.15100
H2106       H  0.54789369  0.38890702  0.82914791     0.15100
H2107       H  0.97997026  0.38019615  0.65762492     0.15100
H2108       H  0.53912926  0.40734759  0.65442854     0.15100
H2109       H  0.90599780  0.37614252  0.77951800     0.13400
H2110       H  0.90256713  0.37735383  0.73056763     0.13400
H2111       H  0.62207943  0.48132825  0.76753398     0.13400
H2112       H  0.61926500  0.48385987  0.71876879     0.13400
H2113       H  0.51677045  0.42009950  0.76989809     0.26700
H2114       H  0.51311687  0.42101376  0.72690142     0.26700
C2115       C  0.97302458  0.16077958  0.59500321     0.02800
C2116       C  0.50384177  0.16928843  0.59246440     0.02800
C2117       C  0.51744039  0.16023298  0.61035640    -0.17700
C2118       C  0.50127088  0.14357580  0.63102390     0.02800
C2119       C  0.97061912  0.13650410  0.63411946     0.02800
C2120       C  0.95704307  0.14520532  0.61600429    -0.17700
H2121       H  0.93337914  0.13900129  0.61787427     0.04800
H2122       H  0.54099226  0.16621690  0.60809027     0.04800
C2123       C  0.70091047  0.01985692  0.58545677     0.02800
C2124       C  0.68301973  0.48903176  0.58454540     0.02800
C2125       C  0.66156536  0.47513284  0.60348453    -0.17700
C2126       C  0.65689294  0.49082408  0.62277204     0.02800
C2127       C  0.67612105  0.02116423  0.62481981     0.02800
C2128       C  0.69781011  0.03519675  0.60607778    -0.17700
H2129       H  0.71172515  0.05863409  0.60701476     0.04800
H2130       H  0.64727309  0.45173773  0.60258812     0.04800
C2131       C  0.85135331  0.33052432  0.91472428     0.02800
C2132       C  0.83080960  0.34197009  0.91282647     0.02800
C2133       C  0.83360352  0.35970955  0.89251150    -0.17700
C2134       C  0.85641792  0.36712117  0.87438597     0.02800
C2135       C  0.87745509  0.35645759  0.87655196     0.02800
C2136       C  0.87466951  0.33848675  0.89680158    -0.17700
H2137       H  0.89042607  0.32987357  0.89824080     0.04800
H2138       H  0.81799493  0.36851028  0.89103332     0.04800
C2139       C  0.81685195  0.33938421  0.59959526     0.02800
C2140       C  0.83465293  0.32504686  0.59800269     0.02800
C2141       C  0.85724898  0.33179096  0.61548598    -0.17700
C2142       C  0.86149992  0.35153887  0.63497183     0.02800
C2143       C  0.84068396  0.36262973  0.63826433     0.02800
C2144       C  0.81876119  0.35618944  0.62046718    -0.17700
H2145       H  0.80285122  0.36465791  0.62265209     0.04800
H2146       H  0.87197120  0.32192702  0.61360199     0.04800
C2147       C  0.69901553  0.02012128  0.90246123     0.02800
C2148       C  0.68900929  0.48966451  0.90075064     0.02800
C2149       C  0.67105093  0.47404812  0.88074740    -0.17700
C2150       C  0.66286116  0.48777823  0.86239195     0.02800
C2151       C  0.67450358  0.01863288  0.86308681     0.02800
C2152       C  0.69237113  0.03404058  0.88310801    -0.17700
H2153       H  0.70029376  0.05735373  0.88425089     0.04800
H2154       H  0.66192666  0.45052292  0.88019461     0.04800
C2155       C  0.51285354  0.17789512  0.90929793     0.02800
C2156       C  0.98183676  0.16922954  0.90934153     0.02800
C2157       C  0.96433276  0.15128505  0.89023433    -0.17700
C2158       C  0.97649016  0.14067416  0.87162476     0.02800
C2159       C  0.50744020  0.14890963  0.87174382     0.02800
C2160       C  0.52509686  0.16731662  0.89058737    -0.17700
H2161       H  0.54894020  0.17413840  0.89034237     0.04800
H2162       H  0.94062895  0.14507217  0.89014941     0.04800
O2163       O  0.60869513  0.34693433  0.48120032    -0.80400
O2164       O  0.71862409  0.35221315  0.53117520    -0.65100
O2165       O  0.65915763  0.33923159  0.48326612    -1.11700
C2166       C  0.59901827  0.25781662  0.53531199     1.06500
O2167       O  0.70623871  0.30614619  0.52545167    -0.78300
O2168       O  0.65928874  0.26280118  0.50507451    -0.65800
Ni2169     Ni  0.65039220  0.36855928  0.47204510     1.34900
C2170       C  0.64935099  0.26405758  0.48410356     0.85300
O2171       O  0.71934032  0.38042744  0.48824623    -0.78800
O2172       O  0.69155090  0.39187343  0.46268986    -0.89100
C2173       C  0.72304119  0.33038710  0.53534139     0.84800
O2174       O  0.65713570  0.39103117  0.50135027    -0.67300
O2175       O  0.62355220  0.26081991  0.54408233    -0.86600
C2176       C  0.67093630  0.39327895  0.52118034     0.85700
C2177       C  0.71663671  0.39611368  0.47123321     1.07200
H2178       H  0.65143086  0.32238602  0.53872777     0.39000
O2179       O  0.65744674  0.31519275  0.52415533    -1.09200
O2180       O  0.63792354  0.28080237  0.47964210    -0.65900
Ni2181     Ni  0.62781497  0.30640890  0.49993779     1.26300
O2182       O  0.68169931  0.37606552  0.52645742    -0.66100
O2183       O  0.59743319  0.27362257  0.51798826    -0.78400
C2184       C  0.59182479  0.32166386  0.47279328     0.85000
O2185       O  0.59874151  0.30131882  0.47567724    -0.65600
Ni2186     Ni  0.66493270  0.28444195  0.53485841     1.27400
Ni2187     Ni  0.68924881  0.34794786  0.50703941     1.26100
H2188       H  0.66533995  0.33234608  0.46861273     0.39600
O2189       O  0.70041028  0.28896605  0.02009001    -0.80400
O2190       O  0.70027563  0.38815812  0.96560178    -0.65100
O2191       O  0.68353876  0.33172493  0.01628493    -1.11700
C2192       C  0.60343565  0.27275842  0.96517962     1.06500
O2193       O  0.65330883  0.37996856  0.96898776    -0.78300
O2194       O  0.61456542  0.33689519  0.99905423    -0.65800
Ni2195     Ni  0.71508618  0.32837690  0.03127101     1.34900
C2196       C  0.61096189  0.32061827  0.01755687     0.85300
O2197       O  0.72563266  0.39069970  0.00923588    -0.78800
O2198       O  0.73067246  0.36785894  0.04268870    -0.89100
C2199       C  0.68034602  0.39598211  0.96174218     0.84800
O2200       O  0.74381645  0.34042299  0.00443981    -0.67300
O2201       O  0.60339228  0.29705690  0.96165817    -0.86600
C2202       C  0.74130164  0.34408973  0.98158623     0.85700
C2203       C  0.73525089  0.39085429  0.03090545     1.07200
H2204       H  0.66816523  0.32512199  0.95955499     0.39000
O2205       O  0.66094142  0.32978907  0.97467729    -1.09200
O2206       O  0.62260021  0.30344929  0.01845956    -0.65900
Ni2207     Ni  0.65338111  0.29969827  0.99835379     1.26300
O2208       O  0.72080693  0.34943034  0.97360513    -0.66100
O2209       O  0.62238843  0.26985851  0.97875769    -0.78400
C2210       C  0.67505293  0.26871508  0.02695943     0.85000
O2211       O  0.65129363  0.27044945  0.02178289    -0.65600
Ni2212     Ni  0.62953541  0.33793618  0.96622049     1.27400
Ni2213     Ni  0.69351358  0.36032441  0.99124367     1.26100
H2214       H  0.67375550  0.33692423  0.02956476     0.39600
N2215       N  0.99500242  0.09777511  0.21230746    -0.36100
N2216       N  0.94772238  0.07674014  0.25054375    -0.56600
N2217       N  0.99160120  0.11045836  0.28635183    -0.36100
N2218       N  0.53878387  0.13340754  0.24891014    -0.56600
C2219       C  0.97026578  0.08530813  0.19808194     0.27500
C2220       C  0.51915525  0.11311400  0.19713205     0.27500
C2221       C  0.96601454  0.10212497  0.29974665     0.27500
C2222       C  0.51320205  0.13315966  0.29834884     0.27500
C2223       C  0.93240866  0.05928462  0.23167869     0.36100
C2224       C  0.93186219  0.06425562  0.27152369     0.36100
C2225       C  0.55791109  0.13610136  0.22987524     0.36100
C2226       C  0.55515768  0.14119731  0.26978139     0.36100
C2227       C  0.97883300  0.09296702  0.17354888    -0.21400
C2228       C  0.50948639  0.10919369  0.17280353    -0.21400
C2229       C  0.97113729  0.12003354  0.32026505    -0.21400
C2230       C  0.50098716  0.14005708  0.31914717    -0.21400
C2231       C  0.90644822  0.03581432  0.24072306    -0.22400
C2232       C  0.90610846  0.03909183  0.26600738    -0.22400
C2233       C  0.58678711  0.14733130  0.23883966    -0.22400
C2234       C  0.58464723  0.14860190  0.26399331    -0.22400
C2235       C  0.94063048  0.06522087  0.20631548    -0.17800
C2236       C  0.54968035  0.12894644  0.20463458    -0.17800
C2237       C  0.54401729  0.14340311  0.29366631    -0.17800
C2238       C  0.93946685  0.07650511  0.29535484    -0.17800
H2239       H  0.96471654  0.08646841  0.15752309     0.15100
H2240       H  0.52270647  0.11644434  0.15585120     0.15100
H2241       H  0.95533238  0.11821911  0.33495242     0.15100
H2242       H  0.51283783  0.15647085  0.33298336     0.15100
H2243       H  0.88945047  0.01822952  0.23021889     0.13400
H2244       H  0.88861375  0.02511877  0.27882504     0.13400
H2245       H  0.60785530  0.15435163  0.22895665     0.13400
H2246       H  0.60325747  0.15507272  0.27623942     0.13400
H2247       H  0.99590828  0.09347949  0.23089949     0.26700
H2248       H  0.99514428  0.09791988  0.27275024     0.26700
N2249       N  0.90181317  0.40623233  0.28354099    -0.36100
N2250       N  0.87027012  0.41672224  0.24463114    -0.56600
N2251       N  0.89997413  0.39517217  0.20922140    -0.36100
N2252       N  0.93047776  0.38372653  0.24859229    -0.56600
C2253       C  0.89260064  0.42392973  0.29527422     0.27500
C2254       C  0.92299418  0.40535623  0.29780470     0.27500
C2255       C  0.87933744  0.39646137  0.19449542     0.27500
C2256       C  0.91236666  0.38072943  0.19634003     0.27500
C2257       C  0.85889386  0.42589014  0.26374714     0.36100
C2258       C  0.85898911  0.42124197  0.22368538     0.36100
C2259       C  0.94022523  0.37772066  0.26968095     0.36100
C2260       C  0.94144825  0.37389178  0.22978002     0.36100
C2261       C  0.90873613  0.43496984  0.31666999    -0.21400
C2262       C  0.92725943  0.42264814  0.31864338    -0.21400
C2263       C  0.87834550  0.38225014  0.17227991    -0.21400
C2264       C  0.89944493  0.37271337  0.17331245    -0.21400
C2265       C  0.83949573  0.43539983  0.25492420    -0.22400
C2266       C  0.84123485  0.43443857  0.22968037    -0.22400
C2267       C  0.95693480  0.36338845  0.26433652    -0.22400
C2268       C  0.95839078  0.36162351  0.23895861    -0.22400
C2269       C  0.86833145  0.42859550  0.28853478    -0.17800
C2270       C  0.93713049  0.38786987  0.29336205    -0.17800
C2271       C  0.93504271  0.37441962  0.20456502    -0.17800
C2272       C  0.86279148  0.41181624  0.19958967    -0.17800
H2273       H  0.90670361  0.44973128  0.32996560     0.15100
H2274       H  0.94193265  0.42606916  0.33392923     0.15100
H2275       H  0.86409813  0.37935487  0.15673223     0.15100
H2276       H  0.90439454  0.36082229  0.15886285     0.15100
H2277       H  0.82584923  0.44304239  0.26513157     0.13400
H2278       H  0.82988428  0.44227651  0.21761234     0.13400
H2279       H  0.96774430  0.35584702  0.27734671     0.13400
H2280       H  0.97000859  0.35181800  0.22856896     0.13400
H2281       H  0.89146239  0.39242632  0.26872249     0.26700
H2282       H  0.90764393  0.40647121  0.22571281     0.26700
C2283       C  0.81438822  0.48022012  0.41207871     0.02800
C2284       C  0.83190349  0.01072396  0.41387598     0.02800
C2285       C  0.85492628  0.02552672  0.39642870    -0.17700
C2286       C  0.85868516  0.01144229  0.37547318     0.02800
C2287       C  0.83877288  0.48133883  0.37194342     0.02800
C2288       C  0.81772199  0.46603680  0.39084033    -0.17700
H2289       H  0.80289792  0.44291042  0.38867893     0.04800
H2290       H  0.86868545  0.04892835  0.39823712     0.04800
N2291       N  0.60480181  0.49884576  0.29038115    -0.36100
N2292       N  0.61485563  0.03996051  0.25003931    -0.56600
N2293       N  0.60474588  0.49420993  0.21414463    -0.36100
N2294       N  0.59397688  0.45348925  0.25373681    -0.56600
C2295       C  0.60513684  0.02162927  0.30339387     0.27500
C2296       C  0.59053358  0.47436619  0.30465374     0.27500
C2297       C  0.60151588  0.01395309  0.20011567     0.27500
C2298       C  0.59005272  0.46806540  0.20272413     0.27500
C2299       C  0.62303673  0.05900968  0.26931063     0.36100
C2300       C  0.62264119  0.05599411  0.22881701     0.36100
C2301       C  0.59517813  0.44002767  0.27460804     0.36100
C2302       C  0.59692722  0.43816222  0.23438226     0.36100
C2303       C  0.59212279  0.01162019  0.32664846    -0.21400
C2304       C  0.58186567  0.48195425  0.32703396    -0.21400
C2305       C  0.58438801  0.00015406  0.17971882    -0.21400
C2306       C  0.57648430  0.47112082  0.18176145    -0.21400
C2307       C  0.63540867  0.08727242  0.26012459    -0.22400
C2308       C  0.63533908  0.08532696  0.23462376    -0.22400
C2309       C  0.60002852  0.41648121  0.26851250    -0.22400
C2310       C  0.60120270  0.41533569  0.24295742    -0.22400
C2311       C  0.61721834  0.05118605  0.29495769    -0.17800
C2312       C  0.58654519  0.44581967  0.29838814    -0.17800
C2313       C  0.59095199  0.44224732  0.20966427    -0.17800
C2314       C  0.61576288  0.04430324  0.20441742    -0.17800
H2315       H  0.58967788  0.02402145  0.34194852     0.15100
H2316       H  0.56959252  0.46793317  0.34241080     0.15100
H2317       H  0.57806227  0.00963728  0.16476048     0.15100
H2318       H  0.56299120  0.45433638  0.16880316     0.15100
H2319       H  0.64301364  0.10731522  0.27056092     0.13400
H2320       H  0.64273750  0.10339329  0.22186378     0.13400
H2321       H  0.60086190  0.40083730  0.28114756     0.13400
H2322       H  0.60330901  0.39873380  0.23200876     0.13400
H2323       H  0.61585762  0.50052390  0.27346450     0.26700
H2324       H  0.61938077  0.49902866  0.22879459     0.26700
C2325       C  0.80466393  0.48032471  0.09640687     0.02800
C2326       C  0.81910720  0.01068338  0.10003397     0.02800
C2327       C  0.83846444  0.02250017  0.12009134    -0.17700
C2328       C  0.84500222  0.00482608  0.13567112     0.02800
C2329       C  0.83029907  0.47418544  0.13157674     0.02800
C2330       C  0.80967754  0.46244268  0.11268942    -0.17700
H2331       H  0.79886462  0.43906467  0.10953546     0.04800
H2332       H  0.85032456  0.04597741  0.12242462     0.04800
C2333       C  0.67077061  0.17031040  0.40625774     0.02800
C2334       C  0.65386395  0.18571680  0.40817494     0.02800
C2335       C  0.63272981  0.18116106  0.39010441    -0.17700
C2336       C  0.62702332  0.16107373  0.37081566     0.02800
C2337       C  0.64257174  0.14422257  0.36914715     0.02800
C2338       C  0.66458931  0.14960836  0.38695212    -0.17700
H2339       H  0.67689126  0.13720431  0.38605859     0.04800
H2340       H  0.62000038  0.19318478  0.39127497     0.04800
C2341       C  0.68007804  0.15511546  0.08727918     0.02800
C2342       C  0.66691473  0.17395768  0.08848663     0.02800
C2343       C  0.64854747  0.17219971  0.10906365    -0.17700
C2344       C  0.63990730  0.15022697  0.12716583     0.02800
C2345       C  0.64944650  0.12835522  0.12376675     0.02800
C2346       C  0.67037696  0.13207294  0.10449324    -0.17700
H2347       H  0.67918705  0.11665626  0.10270472     0.04800
H2348       H  0.64120476  0.18868750  0.11086709     0.04800
C2349       C  0.97558148  0.31933748  0.41028284     0.02800
C2350       C  0.50611270  0.32605955  0.40902464     0.02800
C2351       C  0.52490622  0.34396818  0.38974531    -0.17700
C2352       C  0.51442220  0.35632385  0.37191546     0.02800
C2353       C  0.98383644  0.35019597  0.37374490     0.02800
C2354       C  0.96538130  0.33259500  0.39327906    -0.17700
H2355       H  0.94236591  0.32865252  0.39507967     0.04800
H2356       H  0.54830317  0.34898900  0.38905838     0.04800
C2357       C  0.53339495  0.32757653  0.09600516     0.02800
C2358       C  0.00202554  0.31703052  0.09527934     0.02800
C2359       C  0.98823531  0.32753338  0.11260390    -0.17700
C2360       C  0.00389614  0.34587066  0.13205103     0.02800
C2361       C  0.53488449  0.35472155  0.13421868     0.02800
C2362       C  0.54930249  0.34613950  0.11565842    -0.17700
H2363       H  0.57329488  0.35407256  0.11642352     0.04800
H2364       H  0.96435399  0.32024150  0.11149342     0.04800
C2365       C  0.53615469  0.37678050  0.35262741     0.00400
C2366       C  0.52946937  0.37219315  0.32727495    -0.11500
C2367       C  0.54543378  0.39411002  0.30954960     0.02600
C2368       C  0.57064075  0.42055555  0.31647462     0.00300
C2369       C  0.57946086  0.42338132  0.34133821    -0.11400
C2370       C  0.56189626  0.40261214  0.35943163     0.02500
H2371       H  0.01006081  0.35240106  0.32160920     0.15500
H2372       H  0.59914053  0.44289842  0.34701764     0.15500
C2373       C  0.56926191  0.40959815  0.38516230     0.37100
C2374       C  0.53424389  0.38955915  0.28466533     0.37000
N2375       N  0.57480519  0.41510138  0.40585968    -0.43200
N2376       N  0.02598952  0.38628469  0.26449819    -0.43200
C2377       C  0.58132450  0.41770660  0.19122928     0.00400
C2378       C  0.55775236  0.39022139  0.19770683    -0.11500
C2379       C  0.54449184  0.36829364  0.17989215     0.02600
C2380       C  0.55292226  0.37441533  0.15458991     0.00300
C2381       C  0.57818798  0.40085122  0.14839634    -0.11400
C2382       C  0.59289573  0.42207450  0.16651339     0.02500
H2383       H  0.54904572  0.38602386  0.21662896     0.15500
H2384       H  0.58572653  0.40547250  0.12916773     0.15500
C2385       C  0.61891081  0.44868498  0.15896188     0.37100
C2386       C  0.02280389  0.33959819  0.18817658     0.37000
N2387       N  0.63959040  0.47003524  0.15273440    -0.43200
N2388       N  0.00570572  0.31658870  0.19507257    -0.43200
C2389       C  0.62319398  0.07513732  0.31378342     0.00400
C2390       C  0.65280934  0.09673429  0.31773797    -0.11500
C2391       C  0.65933475  0.11985706  0.33460018     0.03000
C2392       C  0.63627243  0.12089664  0.34949146     0.00300
C2393       C  0.60685848  0.09851135  0.34605907    -0.11400
C2394       C  0.59999230  0.07716296  0.32749068     0.02500
H2395       H  0.67091915  0.09596588  0.30704155     0.15500
H2396       H  0.58896830  0.09717258  0.35808812     0.15500
C2397       C  0.56886414  0.05787809  0.32258083     0.37100
C2398       C  0.68986673  0.14268835  0.33566234     0.37000
N2399       N  0.54396844  0.04237893  0.31858556    -0.43200
N2400       N  0.71435683  0.16102947  0.33640399    -0.43200
C2401       C  0.63967215  0.10254491  0.14084749     0.00400
C2402       C  0.66164645  0.09828453  0.15298546    -0.11500
C2403       C  0.65413176  0.07930133  0.17336127     0.02600
C2404       C  0.62415037  0.06423549  0.18227680     0.00300
C2405       C  0.60188965  0.06663094  0.16883907    -0.11400
C2406       C  0.60926708  0.08440666  0.14759902     0.02500
H2407       H  0.68504104  0.11128706  0.14763860     0.15500
H2408       H  0.57864768  0.05452082  0.17491713     0.15500
C2409       C  0.58540148  0.08453673  0.13353918     0.37100
C2410       C  0.67779188  0.07613874  0.18509951     0.37000
N2411       N  0.56636497  0.08471872  0.12219258    -0.43200
N2412       N  0.69695400  0.07370976  0.19427718    -0.43200
C2413       C  0.97001868  0.36064474  0.35495270     0.00400
C2414       C  0.98461872  0.39005131  0.34749891    -0.11500
C2415       C  0.97553245  0.39903117  0.32650347     0.02600
C2416       C  0.94901672  0.37945835  0.31482089     0.00300
C2417       C  0.93287553  0.35085352  0.32352697    -0.11400
C2418       C  0.94348035  0.34102725  0.34292876     0.02500
H2419       H  0.50442244  0.40556292  0.35697829     0.15500
H2420       H  0.91245019  0.33585131  0.31443691     0.15500
C2421       C  0.92717601  0.31045241  0.34927784     0.37100
C2422       C  0.99439871  0.42779136  0.31654734     0.37000
N2423       N  0.91390659  0.28603351  0.35453217    -0.43200
N2424       N  0.50959272  0.45071627  0.30838116    -0.43200
C2425       C  0.95200974  0.36661508  0.18562047     0.00400
C2426       C  0.97539094  0.38913446  0.17215375    -0.11500
C2427       C  0.99224252  0.38295442  0.15424559     0.02600
C2428       C  0.98630471  0.35386319  0.15022092     0.00300
C2429       C  0.96205807  0.33131884  0.16299932    -0.11400
C2430       C  0.94491054  0.33744998  0.18054845     0.02500
H2431       H  0.98023725  0.41155324  0.17549653     0.15500
H2432       H  0.95681141  0.30882843  0.15947603     0.15500
C2433       C  0.92020342  0.31356485  0.19313171     0.37100
C2434       C  0.01429281  0.40648707  0.13932767     0.37000
N2435       N  0.90042510  0.29438787  0.20322423    -0.43200
N2436       N  0.03177157  0.42523893  0.12713902    -0.43200
C2437       C  0.85448747  0.43903031  0.30856282     0.00400
C2438       C  0.85316694  0.46526235  0.30580290    -0.11500
C2439       C  0.84274325  0.47635983  0.32522330     0.02600
C2440       C  0.84004716  0.46508469  0.34935120     0.00300
C2441       C  0.83991402  0.43813049  0.35205287    -0.11400
C2442       C  0.84510951  0.42420118  0.33157621     0.02500
H2443       H  0.86001093  0.47708107  0.28848731     0.15500
H2444       H  0.83638616  0.42815081  0.37021592     0.15500
C2445       C  0.84232280  0.39544252  0.33498084     0.37100
C2446       C  0.83289666  0.99758509  0.31955972     0.37000
N2447       N  0.84013997  0.37243416  0.33771153    -0.43200
N2448       N  0.82432120  0.01402063  0.31472472    -0.43200
C2449       C  0.85086593  0.42059123  0.17802796     0.00400
C2450       C  0.87089968  0.43665079  0.15873933    -0.11500
C2451       C  0.86235905  0.45062330  0.14119264     0.02600
C2452       C  0.83641297  0.45357934  0.14584378     0.00300
C2453       C  0.81450133  0.43401864  0.16236834    -0.11400
C2454       C  0.82094523  0.41571343  0.17709821     0.02500
H2455       H  0.89309089  0.43830805  0.15733942     0.15500
H2456       H  0.79256109  0.43297694  0.16362086     0.15500
C2457       C  0.79718018  0.39312815  0.19166066     0.37100
C2458       C  0.87884240  0.45951666  0.11787294     0.37000
N2459       N  0.77805886  0.37491644  0.20316543    -0.43200
N2460       N  0.89170123  0.46637772  0.09901491    -0.43200
C2461       C  0.91973497  0.06123890  0.31686895     0.00400
C2462       C  0.92369542  0.03934289  0.32863623    -0.11500
C2463       C  0.90497470  0.02366120  0.34856501     0.02600
C2464       C  0.88172325  0.02973832  0.35671630     0.00300
C2465       C  0.87919512  0.05304982  0.34594874    -0.11400
C2466       C  0.89758550  0.06837272  0.32579246     0.02500
H2467       H  0.94126083  0.03434784  0.32203796     0.15500
H2468       H  0.86155986  0.05806027  0.35232506     0.15500
C2469       C  0.89280127  0.09061371  0.31395935     0.37100
C2470       C  0.91006746  0.50166638  0.36049197     0.37000
N2471       N  0.88907561  0.10841019  0.30429325    -0.43200
N2472       N  0.91403279  0.48404403  0.37020863    -0.43200
C2473       C  0.86876001  0.01953123  0.15452963     0.00400
C2474       C  0.89619562  0.01904477  0.15154185    -0.11500
C2475       C  0.91894862  0.03205959  0.16876880     0.02600
C2476       C  0.91646371  0.04980398  0.18775817     0.00300
C2477       C  0.88975430  0.05210239  0.18985837    -0.11400
C2478       C  0.86575976  0.03653834  0.17399075     0.02500
H2479       H  0.90036781  0.00903439  0.13542725     0.15500
H2480       H  0.88737171  0.06555826  0.20440135     0.15500
C2481       C  0.83834338  0.03839964  0.17806411     0.37100
C2482       C  0.94408480  0.02601377  0.16689545     0.37000
N2483       N  0.81639172  0.53992265  0.18142790    -0.43200
N2484       N  0.96406274  0.02092051  0.16538151    -0.43200
C2485       C  0.60474555  0.15884809  0.35265975     0.00400
C2486       C  0.61328461  0.17929042  0.33336778    -0.11500
C2487       C  0.59245212  0.17713379  0.31573355     0.02600
C2488       C  0.56415661  0.15202691  0.31545896     0.00300
C2489       C  0.55509700  0.13345210  0.33626322    -0.11400
C2490       C  0.57436871  0.13858935  0.35581412     0.02500
H2491       H  0.63589833  0.19718507  0.33246002     0.15500
H2492       H  0.53287169  0.11497941  0.33742219     0.15500
C2493       C  0.56243223  0.12356131  0.37906967     0.37100
C2494       C  0.60037456  0.20077807  0.29840529     0.37000
N2495       N  0.55273740  0.11197805  0.39784705    -0.43200
N2496       N  0.60665115  0.21980029  0.28462286    -0.43200
C2497       C  0.57442000  0.13763569  0.18530703     0.00400
C2498       C  0.59695536  0.12929459  0.18821460    -0.11500
C2499       C  0.62215453  0.14044629  0.17242435     0.02600
C2500       C  0.62015661  0.15022427  0.14865650     0.00300
C2501       C  0.59783744  0.15898936  0.14551743    -0.11400
C2502       C  0.57729066  0.15565423  0.16485965     0.02500
H2503       H  0.59628243  0.11621278  0.20397518     0.15500
H2504       H  0.59634751  0.16870141  0.12831725     0.15500
C2505       C  0.56001651  0.17126375  0.16356174     0.37100
C2506       C  0.65030772  0.14444278  0.18183510     0.37000
N2507       N  0.54622556  0.18382825  0.16270912    -0.43200
N2508       N  0.67308015  0.14843151  0.18954104    -0.43200
C2509       C  0.67413251  0.24336887  0.04085079     0.00400
C2510       C  0.64794264  0.21643333  0.04133903    -0.11500
C2511       C  0.64620987  0.19284607  0.05519102     0.02600
C2512       C  0.67086685  0.19580760  0.06907630     0.00300
C2513       C  0.69730136  0.22220958  0.06802781    -0.11400
C2514       C  0.69928337  0.24576847  0.05407891     0.02500
H2515       H  0.62863958  0.21385602  0.03114773     0.15500
H2516       H  0.71603912  0.22487551  0.07909739     0.15500
C2517       C  0.72719616  0.27250720  0.05481943     0.37100
C2518       C  0.61851257  0.16586840  0.05564669     0.37000
N2519       N  0.74963613  0.29385374  0.05532865    -0.43200
N2520       N  0.59646382  0.14411758  0.05626168    -0.43200
C2521       C  0.59184926  0.32200736  0.03856595     0.00400
C2522       C  0.57222376  0.29662838  0.05175297    -0.11500
C2523       C  0.55209247  0.29734179  0.07009172     0.02600
C2524       C  0.55128299  0.32372899  0.07525731     0.00300
C2525       C  0.57097308  0.34890966  0.06220363    -0.11400
C2526       C  0.59139830  0.34846077  0.04447610     0.02500
H2527       H  0.57232453  0.27618897  0.04752053     0.15500
H2528       H  0.57105532  0.36943224  0.06654799     0.15500
C2529       C  0.61299169  0.37601783  0.03388674     0.37100
C2530       C  0.53298502  0.27100812  0.08357961     0.37000
N2531       N  0.63048375  0.39819216  0.02572236    -0.43200
N2532       N  0.51762314  0.24980890  0.09429776    -0.43200
C2533       C  0.75193886  0.41898987  0.04344121     0.00400
C2534       C  0.78272887  0.43564501  0.03852096    -0.11500
C2535       C  0.80024846  0.45908936  0.05394897     0.02600
C2536       C  0.78676059  0.46581279  0.07456094     0.00300
C2537       C  0.75558408  0.45093251  0.07788771    -0.11400
C2538       C  0.73807467  0.42771118  0.06239308     0.02500
H2539       H  0.79334734  0.42912974  0.02373965     0.15500
H2540       H  0.74523186  0.45568747  0.09395761     0.15500
C2541       C  0.70618017  0.41197717  0.06728994     0.37100
C2542       C  0.83232867  0.47405998  0.04986693     0.37000
N2543       N  0.68062140  0.39951933  0.07126765    -0.43200
N2544       N  0.85804113  0.48610304  0.04664925    -0.43200
C2545       C  0.65124295  0.24460977  0.46441609     0.00400
C2546       C  0.64382565  0.21576850  0.47071250    -0.11500
C2547       C  0.64575439  0.19650823  0.45312765     0.02600
C2548       C  0.65634171  0.20625486  0.42872078     0.00300
C2549       C  0.66430318  0.23531000  0.42258722    -0.11400
C2550       C  0.66169391  0.25436108  0.44006341     0.02500
H2551       H  0.63558574  0.20795861  0.48936182     0.15500
H2552       H  0.67183636  0.24290193  0.40378217     0.15500
C2553       C  0.67049612  0.28395198  0.43269417     0.37100
C2554       C  0.63465527  0.16651125  0.46042148     0.37000
N2555       N  0.67758712  0.30769974  0.42679115    -0.43200
N2556       N  0.62521650  0.14265148  0.46707180    -0.43200
C2557       C  0.56443638  0.31699929  0.45972331     0.00400
C2558       C  0.55267213  0.33630795  0.46497649    -0.11500
C2559       C  0.53146022  0.33773397  0.44977821     0.02600
C2560       C  0.52081015  0.31893575  0.42920647     0.00300
C2561       C  0.53069288  0.29805178  0.42495642    -0.11400
C2562       C  0.55239366  0.29691162  0.44000292     0.02500
H2563       H  0.56153963  0.35177929  0.48010020     0.15500
H2564       H  0.52306779  0.28408034  0.40877263     0.15500
C2565       C  0.56381159  0.27687018  0.43331782     0.37100
C2566       C  0.52362906  0.36091242  0.45406546     0.37000
N2567       N  0.57306015  0.26087316  0.42796644    -0.43200
N2568       N  0.01770019  0.37970092  0.45749529    -0.43200
C2569       C  0.74372286  0.42061494  0.46013679     0.00400
C2570       C  0.77004591  0.41814508  0.45686782    -0.11500
C2571       C  0.79418491  0.43873070  0.44273361     0.02600
C2572       C  0.79207769  0.46212856  0.43136188     0.00300
C2573       C  0.76666936  0.46578391  0.43618958    -0.11400
C2574       C  0.74290599  0.44571739  0.45091918     0.02500
H2575       H  0.77129543  0.39945787  0.46438235     0.15500
H2576       H  0.76479712  0.48366981  0.42773175     0.15500
C2577       C  0.71808658  0.45159487  0.45652272     0.37100
C2578       C  0.82064313  0.43495620  0.43955863     0.37000
N2579       N  0.69824342  0.45624785  0.46129344    -0.43200
N2580       N  0.84185794  0.43194906  0.43704426    -0.43200
C2581       C  0.58059596  0.24755834  0.95136332     0.00400
C2582       C  0.56232787  0.22076950  0.96319946    -0.11500
C2583       C  0.53902047  0.19786640  0.95035674     0.02600
C2584       C  0.53427596  0.20158974  0.92524701     0.00300
C2585       C  0.55278413  0.22811550  0.91351439    -0.11400
C2586       C  0.57537039  0.25101582  0.92623281     0.02500
H2587       H  0.56579582  0.21798519  0.98253673     0.15500
H2588       H  0.54949398  0.23092513  0.89411149     0.15500
C2589       C  0.59295570  0.27788004  0.91277794     0.37100
C2590       C  0.02050629  0.17082701  0.96313016     0.37000
N2591       N  0.60672586  0.29947215  0.90204616    -0.43200
N2592       N  0.00555235  0.14920124  0.97344644    -0.43200
C2593       C  0.69299091  0.47206223  0.92053210     0.00400
C2594       C  0.71224660  0.45978711  0.91590066    -0.11500
C2595       C  0.71021729  0.43639730  0.93024006     0.02600
C2596       C  0.68792316  0.42429656  0.94925946     0.00300
C2597       C  0.67014346  0.43806621  0.95487471    -0.11400
C2598       C  0.67269904  0.46180504  0.94088737     0.02500
H2599       H  0.72772595  0.46739506  0.90010082     0.15500
H2600       H  0.65332778  0.42956337  0.96969600     0.15500
C2601       C  0.65287340  0.47413232  0.94663025     0.37100
C2602       C  0.72969071  0.42389349  0.92370474     0.37000
N2603       N  0.63720423  0.48429113  0.95110783    -0.43200
N2604       N  0.74536257  0.41392709  0.91849971    -0.43200
C2605       C  0.79493142  0.33682461  0.58076044     0.00400
C2606       C  0.76990025  0.30985725  0.57728078    -0.11500
C2607       C  0.74639218  0.30735811  0.56268756     0.02600
C2608       C  0.74767228  0.33242109  0.55106683     0.00300
C2609       C  0.77299037  0.35947219  0.55446006    -0.11400
C2610       C  0.79657599  0.36182418  0.56904453     0.02500
H2611       H  0.76815173  0.29083593  0.58686629     0.15500
H2612       H  0.77445596  0.37878142  0.54563106     0.15500
C2613       C  0.82226483  0.39015142  0.57183046     0.37100
C2614       C  0.72066600  0.27885924  0.56127551     0.37000
N2615       N  0.84286474  0.41280665  0.57410909    -0.43200
N2616       N  0.70019068  0.25592330  0.56032312    -0.43200
C2617       C  0.80728509  0.33820273  0.93197093     0.00400
C2618       C  0.77748744  0.32770505  0.92448678    -0.11500
C2619       C  0.75565578  0.32927803  0.94021068     0.02600
C2620       C  0.76347658  0.34194875  0.96398763     0.00300
C2621       C  0.79304497  0.35166628  0.97173154    -0.11400
C2622       C  0.81487843  0.35017888  0.95595996     0.02500
H2623       H  0.77144860  0.31890735  0.90593936     0.15500
H2624       H  0.79941950  0.36137082  0.98996311     0.15500
C2625       C  0.84539214  0.36318731  0.96413402     0.37100
C2626       C  0.72526255  0.31692614  0.93175742     0.37000
N2627       N  0.86988442  0.37378225  0.97064363    -0.43200
N2628       N  0.70085379  0.30683477  0.92508442    -0.43200
C2629       C  0.67527131  0.41837124  0.53772675     0.00400
C2630       C  0.65561096  0.43048524  0.53542310    -0.11500
C2631       C  0.65956374  0.45533931  0.54873583     0.02600
C2632       C  0.68408148  0.46946137  0.56456299     0.00300
C2633       C  0.70425215  0.45798795  0.56654626    -0.11400
C2634       C  0.70015210  0.43280508  0.55330364     0.02500
H2635       H  0.63645792  0.42007577  0.52351512     0.15500
H2636       H  0.72247748  0.46793067  0.57941005     0.15500
C2637       C  0.72211004  0.42264446  0.55571584     0.37100
C2638       C  0.63661337  0.46443892  0.54744564     0.37000
N2639       N  0.73972248  0.41446413  0.55748335    -0.43200
N2640       N  0.61780970  0.47117666  0.54663659    -0.43200
C2641       C  0.52334672  0.18983814  0.57296884     0.00400
C2642       C  0.52691184  0.21835349  0.57308773    -0.11500
C2643       C  0.55051002  0.24063963  0.55971749     0.02600
C2644       C  0.57105056  0.23445920  0.54604621     0.00300
C2645       C  0.56640463  0.20561870  0.54465208    -0.11400
C2646       C  0.54260307  0.18328560  0.55777242     0.02500
H2647       H  0.51260415  0.22369612  0.58508862     0.15500
H2648       H  0.58199902  0.20073194  0.53393046     0.15500
C2649       C  0.53902536  0.15401318  0.55625795     0.37100
C2650       C  0.55473076  0.27005005  0.56216107     0.37000
N2651       N  0.53602111  0.13050591  0.55522346    -0.43200
N2652       N  0.55804603  0.29358826  0.56429778    -0.43200
C2653       C  0.94288889  0.37673710  0.81693418     0.00400
C2654       C  0.92380209  0.34757980  0.82328059    -0.11500
C2655       C  0.90352226  0.34057259  0.84350140     0.02600
C2656       C  0.90183778  0.36302905  0.85752787     0.00300
C2657       C  0.92204644  0.39217379  0.85184747    -0.11400
C2658       C  0.94228135  0.39913341  0.83165714     0.02500
H2659       H  0.92438444  0.33031498  0.81211800     0.15500
H2660       H  0.92127087  0.40956052  0.86269763     0.15500
C2661       C  0.96159424  0.42944315  0.82585766     0.37100
C2662       C  0.88321817  0.31024466  0.84847025     0.37000
N2663       N  0.97704316  0.45373278  0.82116260    -0.43200
N2664       N  0.86674028  0.28606284  0.85269115    -0.43200
C2665       C  0.63952672  0.46895035  0.84455532     0.00400
C2666       C  0.64753815  0.46161759  0.82141335    -0.11500
C2667       C  0.62559216  0.44626869  0.80369031     0.02600
C2668       C  0.59556899  0.44101010  0.80796352     0.00300
C2669       C  0.58784225  0.44724550  0.83177181    -0.11400
C2670       C  0.60889536  0.45858125  0.85047821     0.02500
H2671       H  0.67082593  0.46758674  0.81732048     0.15500
H2672       H  0.56521967  0.44351490  0.83591236     0.15500
C2673       C  0.59886969  0.96203499  0.87507793     0.37100
C2674       C  0.63435814  0.43553283  0.78178472     0.37000
N2675       N  0.59076352  0.96493373  0.89469421    -0.43200
N2676       N  0.64148260  0.42687650  0.76431952    -0.43200
C2677       C  0.58815995  0.44921745  0.67872253     0.00400
C2678       C  0.58637342  0.46927161  0.66246493    -0.11500
C2679       C  0.60762696  0.48195625  0.64318806     0.02600
C2680       C  0.63132166  0.47486193  0.64030759     0.00300
C2681       C  0.63175926  0.45325414  0.65538906    -0.11400
C2682       C  0.61078676  0.44084402  0.67480264     0.02500
H2683       H  0.56856900  0.47523345  0.66505581     0.15500
H2684       H  0.64961500  0.44734157  0.65288509     0.15500
C2685       C  0.61350108  0.42025322  0.69092977     0.37100
C2686       C  0.60465428  0.00192574  0.62644010     0.37000
N2687       N  0.61594385  0.40399934  0.70399052    -0.43200
N2688       N  0.60245694  0.01791460  0.61288620    -0.43200
C2689       C  0.93327822  0.37728510  0.68676545     0.00400
C2690       C  0.93135432  0.39835226  0.67189490    -0.11500
C2691       C  0.90913353  0.39024820  0.65405653     0.02600
C2692       C  0.88799569  0.36062106  0.65113890     0.00300
C2693       C  0.89140650  0.33941926  0.66472145    -0.11400
C2694       C  0.91351367  0.34756520  0.68269573     0.02500
H2695       H  0.94725878  0.42116778  0.67426833     0.15500
H2696       H  0.87576653  0.31654886  0.66221075     0.15500
C2697       C  0.91541935  0.32521811  0.69705255     0.37100
C2698       C  0.90875900  0.41252273  0.63848767     0.37000
N2699       N  0.91714125  0.30756088  0.70879222    -0.43200
N2700       N  0.90810311  0.43005464  0.62582147    -0.43200
C2701       C  0.54926233  0.12187813  0.81361051     0.00400
C2702       C  0.55902399  0.15157054  0.81808291    -0.11500
C2703       C  0.54534226  0.16061409  0.83663021     0.02600
C2704       C  0.52231842  0.13975817  0.85189986     0.00300
C2705       C  0.51263800  0.10996611  0.84751264    -0.11400
C2706       C  0.52542434  0.10090456  0.82814996     0.02500
H2707       H  0.57694416  0.16768862  0.80660186     0.15500
H2708       H  0.99464222  0.09380721  0.85890252     0.15500
C2709       C  0.01351115  0.07008888  0.82332498     0.37100
C2710       C  0.55419483  0.19132806  0.83878693     0.37000
N2711       N  0.00375654  0.04535985  0.81950254    -0.43200
N2712       N  0.56103558  0.21589027  0.84047546    -0.43200
C2713       C  0.65054907  0.06500020  0.80872574     0.00400
C2714       C  0.68059706  0.07607146  0.81553111    -0.11500
C2715       C  0.68915074  0.06089682  0.83234530     0.02600
C2716       C  0.66707244  0.03529921  0.84424120     0.00300
C2717       C  0.63701702  0.02648129  0.83909519    -0.11400
C2718       C  0.62882534  0.03927002  0.82029286     0.02500
H2719       H  0.69742281  0.09648244  0.80764850     0.15500
H2720       H  0.61948579  0.01007080  0.85018000     0.15500
C2721       C  0.59764913  0.02578068  0.81363093     0.37100
C2722       C  0.72059509  0.07251408  0.83739599     0.37000
N2723       N  0.57270809  0.01505307  0.80831513    -0.43200
N2724       N  0.74576072  0.08206651  0.84169930    -0.43200
C2725       C  0.67206874  0.03875052  0.64524245     0.00400
C2726       C  0.66799295  0.06296024  0.63937112    -0.11500
C2727       C  0.65849877  0.07655728  0.65758982     0.02600
C2728       C  0.65051050  0.06443843  0.68171042     0.00300
C2729       C  0.65615429  0.04114605  0.68764515    -0.11400
C2730       C  0.66909717  0.03003248  0.67024622     0.02500
H2731       H  0.67140236  0.07077555  0.62039670     0.15500
H2732       H  0.65127517  0.03212771  0.70621115     0.15500
C2733       C  0.68034884  0.01076310  0.67866969     0.37100
C2734       C  0.65697498  0.10271191  0.65101663     0.37000
N2735       N  0.68980104  0.49573336  0.68558089    -0.43200
N2736       N  0.65572270  0.12366442  0.64575316    -0.43200
C2737       C  0.51681525  0.13340530  0.64860974     0.00400
C2738       C  0.50396985  0.10364800  0.65480449    -0.11500
C2739       C  0.51641691  0.09376408  0.67296401     0.02600
C2740       C  0.54340503  0.11351033  0.68406279     0.00300
C2741       C  0.55700001  0.14295443  0.67710159    -0.11400
C2742       C  0.54384008  0.15311936  0.65987314     0.02500
H2743       H  0.48358721  0.08817949  0.64597871     0.15500
H2744       H  0.57758039  0.15824058  0.68581979     0.15500
C2745       C  0.55775322  0.18410490  0.65515405     0.37100
C2746       C  0.50063135  0.06352378  0.68030207     0.37000
N2747       N  0.56890293  0.20892234  0.65135564    -0.43200
N2748       N  0.48770846  0.03922151  0.68598409    -0.43200
C2749       C  0.92235965  0.08060754  0.81569095     0.00400
C2750       C  0.91310471  0.07558664  0.84076256    -0.11500
C2751       C  0.93030411  0.09482145  0.85921600     0.02600
C2752       C  0.95626128  0.12077509  0.85254171     0.00300
C2753       C  0.96397925  0.12701019  0.82732433    -0.11400
C2754       C  0.94827150  0.10662205  0.80906493     0.02500
H2755       H  0.89346366  0.05549975  0.84606346     0.15500
H2756       H  0.48356356  0.14708885  0.82198921     0.15500
C2757       C  0.96076534  0.11190530  0.78413133     0.37100
C2758       C  0.92212785  0.08629194  0.88484551     0.37000
N2759       N  0.47055979  0.11601520  0.76407009    -0.43200
N2760       N  0.91580092  0.07955487  0.90541308    -0.43200
C2761       C  0.85873918  0.38810854  0.85481540     0.00400
C2762       C  0.85958720  0.41443480  0.86247079    -0.11500
C2763       C  0.86039314  0.43465715  0.84525062     0.02600
C2764       C  0.86332738  0.43012059  0.81960870     0.00300
C2765       C  0.86318932  0.40400697  0.81199293    -0.11400
C2766       C  0.85898924  0.38235537  0.82916336     0.02500
H2767       H  0.85867629  0.41883786  0.88211870     0.15500
H2768       H  0.86527494  0.39998093  0.79243397     0.15500
C2769       C  0.85263296  0.35393558  0.81976724     0.37100
C2770       C  0.85692896  0.45918942  0.85450612     0.37000
N2771       N  0.84702920  0.33122816  0.81170598    -0.43200
N2772       N  0.85425174  0.47887853  0.86196218    -0.43200
C2773       C  0.91649378  0.07631827  0.69118787     0.00400
C2774       C  0.94194284  0.10228343  0.69764747    -0.11500
C2775       C  0.95833526  0.12351214  0.67979202     0.02600
C2776       C  0.95122482  0.11759918  0.65454450     0.00300
C2777       C  0.92516589  0.09234846  0.64821042    -0.11400
C2778       C  0.90721932  0.07245267  0.66632549     0.02500
H2779       H  0.94916861  0.10603380  0.71667128     0.15500
H2780       H  0.91887554  0.08800287  0.62892986     0.15500
C2781       C  0.87927973  0.04852860  0.65879985     0.37100
C2782       C  0.48159607  0.15133613  0.68793089     0.37000
N2783       N  0.85686556  0.02962738  0.65242822    -0.43200
N2784       N  0.49986089  0.17371274  0.69471070    -0.43200
C2785       C  0.84199001  0.38275057  0.65871841     0.00400
C2786       C  0.83875488  0.40739522  0.65259867    -0.11500
C2787       C  0.83902833  0.42676994  0.67075512     0.02600
C2788       C  0.84656921  0.42403995  0.69521686     0.00300
C2789       C  0.84935149  0.39920731  0.70154381    -0.11400
C2790       C  0.84503959  0.37769856  0.68392260     0.02500
H2791       H  0.83563684  0.41149256  0.63349558     0.15500
H2792       H  0.85463723  0.39635391  0.72033432     0.15500
C2793       C  0.84173484  0.35015376  0.69264079     0.37100
C2794       C  0.83106862  0.44898105  0.66378454     0.37000
N2795       N  0.83866212  0.32807640  0.70009673    -0.43200
N2796       N  0.82428909  0.46646235  0.65809093    -0.43200
C2797       C  0.91393138  0.16770772  0.54307666     0.00400
C2798       C  0.92238410  0.14562303  0.54026308    -0.11500
C2799       C  0.94341499  0.14436574  0.55604256     0.02600
C2800       C  0.95570686  0.16501294  0.57525440     0.00300
C2801       C  0.94714410  0.18690561  0.57816659    -0.11400
C2802       C  0.92675645  0.18866153  0.56213733     0.02500
H2803       H  0.91284819  0.12961802  0.52561666     0.15500
H2804       H  0.95583531  0.20219561  0.59343078     0.15500
C2805       C  0.91825932  0.21137197  0.56651112     0.37100
C2806       C  0.95171062  0.12140730  0.55267913     0.37000
N2807       N  0.91152627  0.22959427  0.57010431    -0.43200
N2808       N  0.95869344  0.10321764  0.55014344    -0.43200
C2809       C  0.82322511  0.02933176  0.42922851     0.00400
C2810       C  0.83552381  0.03860253  0.45264181    -0.11500
C2811       C  0.83444544  0.06243834  0.46434933     0.02600
C2812       C  0.82130693  0.07759900  0.45223079     0.00300
C2813       C  0.80783668  0.06713624  0.42923093    -0.11400
C2814       C  0.80861023  0.04329688  0.41779802     0.02500
H2815       H  0.84705073  0.02801784  0.46125747     0.15500
H2816       H  0.79725627  0.07806524  0.41969973     0.15500
C2817       C  0.79575597  0.03447040  0.39353374     0.37100
C2818       C  0.84691812  0.07070346  0.48868107     0.37000
N2819       N  0.78561354  0.02727657  0.37410269    -0.43200
N2820       N  0.85695077  0.07730985  0.50819397    -0.43200
C2821       C  0.72053008  0.03816596  0.56481279     0.00400
C2822       C  0.75162561  0.04864843  0.56598519    -0.11500
C2823       C  0.77177928  0.07208759  0.55101590     0.02600
C2824       C  0.76086823  0.08551875  0.53422208     0.00300
C2825       C  0.72959207  0.07471814  0.53317742    -0.11400
C2826       C  0.70965469  0.05174759  0.54834265     0.02500
H2827       H  0.76024511  0.03929685  0.57946640     0.15500
H2828       H  0.72049032  0.08469807  0.52074055     0.15500
C2829       C  0.67821480  0.04396790  0.54785268     0.37100
C2830       C  0.80337695  0.08185844  0.55361425     0.37000
N2831       N  0.65318895  0.03831171  0.54742803    -0.43200
N2832       N  0.82865686  0.08957454  0.55608717    -0.43200
C2833       C  0.90427869  0.25955296  0.45946902     0.00400
C2834       C  0.91040818  0.24974291  0.43668199    -0.11500
C2835       C  0.93466220  0.26849211  0.42120971     0.02600
C2836       C  0.95301166  0.29786726  0.42810312     0.00300
C2837       C  0.94638173  0.30783861  0.45049835    -0.11400
C2838       C  0.92264918  0.28906528  0.46620237     0.02500
H2839       H  0.89704618  0.22711196  0.43143257     0.15500
H2840       H  0.95944931  0.33054703  0.45556303     0.15500
C2841       C  0.91710350  0.30098315  0.48891808     0.37100
C2842       C  0.94086803  0.25693967  0.39858442     0.37000
N2843       N  0.91279698  0.31076515  0.50704352    -0.43200
N2844       N  0.94606747  0.24758313  0.38059201    -0.43200
C2845       C  0.74298058  0.17946536  0.45335354     0.00400
C2846       C  0.71512056  0.15391004  0.45362463    -0.11500
C2847       C  0.69156366  0.15098125  0.43891749     0.02600
C2848       C  0.69450029  0.17441990  0.42418447     0.00300
C2849       C  0.72161344  0.20067838  0.42466607    -0.11400
C2850       C  0.74594226  0.20323519  0.43878918     0.02500
H2851       H  0.71185104  0.13525392  0.46462798     0.15500
H2852       H  0.72428463  0.21869003  0.41304891     0.15500
C2853       C  0.77394907  0.22977670  0.43704364     0.37100
C2854       C  0.66486866  0.12309079  0.43859301     0.37000
N2855       N  0.79659458  0.25087947  0.43562840    -0.43200
N2856       N  0.64349262  0.10076600  0.43823228    -0.43200
C2857       C  0.82882272  0.25969561  0.54559475     0.00400
C2858       C  0.82103616  0.25255958  0.57066838    -0.11500
C2859       C  0.82088037  0.27312626  0.58752333     0.02600
C2860       C  0.82934277  0.30175938  0.57950432     0.00300
C2861       C  0.83468878  0.30830155  0.55404608    -0.11400
C2862       C  0.83418501  0.28732729  0.53698735     0.02500
H2863       H  0.81639456  0.23116504  0.57732378     0.15500
H2864       H  0.84054141  0.33010160  0.54768995     0.15500
C2865       C  0.84079751  0.29510700  0.51112679     0.37100
C2866       C  0.81281097  0.26465736  0.61317752     0.37000
N2867       N  0.84587614  0.30135346  0.49036357    -0.43200
N2868       N  0.80635928  0.25808749  0.63375970    -0.43200
C2869       C  0.75521877  0.08516791  0.95448917     0.00400
C2870       C  0.72612734  0.08069074  0.95043082    -0.11500
C2871       C  0.70643309  0.05761254  0.93571890     0.02600
C2872       C  0.71599383  0.03877156  0.92382503     0.00300
C2873       C  0.74440699  0.04188639  0.92938613    -0.11400
C2874       C  0.76389148  0.06470148  0.94481807     0.02500
H2875       H  0.71898028  0.09579639  0.95832597     0.15500
H2876       H  0.75211928  0.02767920  0.92047756     0.15500
C2877       C  0.79339428  0.06794860  0.94897373     0.37100
C2878       C  0.67681345  0.05453170  0.93235067     0.37000
N2879       N  0.81705754  0.07058528  0.95236186    -0.43200
N2880       N  0.65318023  0.05231634  0.92970522    -0.43200
C2881       C  0.74798905  0.15579111  0.03610357     0.00400
C2882       C  0.75495379  0.16472161  0.06080788    -0.11500
C2883       C  0.73370568  0.16669717  0.07707402     0.02600
C2884       C  0.70440534  0.15866542  0.06910029     0.00300
C2885       C  0.69748825  0.15019298  0.04438476    -0.11400
C2886       C  0.71891509  0.14897401  0.02787486     0.02500
H2887       H  0.77733007  0.17105786  0.06721867     0.15500
H2888       H  0.67503504  0.14381139  0.03812566     0.15500
C2889       C  0.70996635  0.13977539  0.00273277     0.37100
C2890       C  0.74276646  0.17810136  0.10169999     0.37000
N2891       N  0.70256105  0.13254740  0.98260336    -0.43200
N2892       N  0.75018027  0.18769173  0.12130384    -0.43200
C2893       C  0.92432690  0.17797782  0.96506288     0.00400
C2894       C  0.94450411  0.20283650  0.95164915    -0.11500
C2895       C  0.96483745  0.20118473  0.93410636     0.02600
C2896       C  0.96536683  0.17448462  0.93024207     0.00300
C2897       C  0.94517005  0.14984244  0.94359791    -0.11400
C2898       C  0.92440310  0.15113299  0.96036223     0.02500
H2899       H  0.94454409  0.22350250  0.95500316     0.15500
H2900       H  0.94470925  0.12901234  0.93995267     0.15500
C2901       C  0.90201067  0.12396426  0.97097501     0.37100
C2902       C  0.98426022  0.22675898  0.91987977     0.37000
N2903       N  0.88399411  0.10186819  0.97885052    -0.43200
N2904       N  0.99988766  0.24728790  0.90848246    -0.43200
C2905       C  0.82826097  0.07680449  0.04841580     0.00400
C2906       C  0.80032570  0.05991858  0.06037267    -0.11500
C2907       C  0.79596946  0.03711610  0.07647662     0.02600
C2908       C  0.81987561  0.03100388  0.08074346     0.00300
C2909       C  0.84694744  0.04641151  0.06765291    -0.11400
C2910       C  0.85141743  0.06891760  0.05155893     0.02500
H2911       H  0.78219414  0.06523988  0.05796709     0.15500
H2912       H  0.86517719  0.04134416  0.07069857     0.15500
C2913       C  0.88057755  0.08376501  0.03945239     0.37100
C2914       C  0.76731294  0.02132853  0.08907827     0.37000
N2915       N  0.90415288  0.09540628  0.03010429    -0.43200
N2916       N  0.74409621  0.50884405  0.09888488    -0.43200
C2917       C  0.93392697  0.25011381  0.05172916     0.00400
C2918       C  0.93543274  0.24674525  0.07733565    -0.11500
C2919       C  0.95899861  0.26720289  0.09102829     0.02600
C2920       C  0.98142421  0.29259163  0.07941865     0.00300
C2921       C  0.98071902  0.29575250  0.05359946    -0.11400
C2922       C  0.95747598  0.27427099  0.03961368     0.02500
H2923       H  0.91819635  0.22763866  0.08671237     0.15500
H2924       H  0.99807877  0.31493352  0.04446064     0.15500
C2925       C  0.95938145  0.27607584  0.01289530     0.37100
C2926       C  0.95961613  0.26173457  0.11721783     0.37000
N2927       N  0.96098006  0.27689689  0.99143741    -0.43200
N2928       N  0.96025709  0.25753500  0.13817577    -0.43200
C2929       C  0.84681204  0.26094226  0.96062742     0.00400
C2930       C  0.82263525  0.25679218  0.94574858    -0.11500
C2931       C  0.82288758  0.27957211  0.93197887     0.02600
C2932       C  0.84766329  0.30760359  0.93291939     0.00300
C2933       C  0.87164699  0.31209788  0.94820830    -0.11400
C2934       C  0.87130996  0.28918412  0.96216937     0.02500
H2935       H  0.80359235  0.23526450  0.94425220     0.15500
H2936       H  0.89096389  0.33352211  0.94886753     0.15500
C2937       C  0.89569338  0.29559921  0.97857300     0.37100
C2938       C  0.79832801  0.27294802  0.91565496     0.37000
N2939       N  0.91517059  0.30117073  0.99194050    -0.43200
N2940       N  0.77860605  0.26746348  0.90257093    -0.43200
O2941       O  0.85984733  0.62053353  0.02680505    -0.80400
O2942       O  0.86691340  0.73147536  0.97942987    -0.65100
O2943       O  0.85169888  0.66967339  0.02529445    -1.11700
C2944       C  0.77624989  0.61243825  0.96722156     1.06500
O2945       O  0.81815911  0.71603940  0.98097564    -0.78300
O2946       O  0.77277715  0.66654527  0.99715369    -0.65800
Ni2947     Ni  0.88206930  0.66075919  0.03558853     1.34900
C2948       C  0.77180318  0.65645078  0.01858775     0.85300
O2949       O  0.89402924  0.72934561  0.02233194    -0.78800
O2950       O  0.90663961  0.70032544  0.04472501    -0.89100
C2951       C  0.84429729  0.73512177  0.97440301     0.84800
O2952       O  0.90302815  0.66639186  0.00492064    -0.67300
O2953       O  0.77991091  0.63661202  0.95812441    -0.86600
C2954       C  0.90498580  0.68019579  0.98521345     0.85700
C2955       C  0.91007761  0.72532623  0.03843720     1.07200
H2956       H  0.83988546  0.66566269  0.96959930     0.39000
O2957       O  0.83056197  0.67041090  0.98355619    -1.09200
O2958       O  0.79026971  0.64753212  0.02531582    -0.65900
Ni2959     Ni  0.81986899  0.63987508  0.00692381     1.26300
O2960       O  0.89116706  0.69510785  0.98227154    -0.66100
O2961       O  0.78919241  0.61065722  0.98671781    -0.78400
C2962       C  0.83365074  0.60366695  0.03475514     0.85000
O2963       O  0.81273632  0.61011101  0.03090836    -0.65600
Ni2964     Ni  0.79998173  0.67643026  0.96964842     1.27400
Ni2965     Ni  0.86184140  0.70091876  0.00234777     1.26100
H2966       H  0.84329621  0.67398555  0.04011746     0.39600
O2967       O  0.89909821  0.69421903  0.51658880    -0.80400
O2968       O  0.79444683  0.69964474  0.46861539    -0.65100
O2969       O  0.84151521  0.68491065  0.51574583    -1.11700
C2970       C  0.81936423  0.60308104  0.46323673     1.06500
O2971       O  0.76228981  0.65475377  0.47773727    -0.78300
O2972       O  0.76761394  0.61029208  0.49648245    -0.65800
Ni2973     Ni  0.87784978  0.71455465  0.52776428     1.34900
C2974       C  0.78030481  0.60857601  0.51583970     0.85300
O2975       O  0.82201220  0.72755159  0.51127468    -0.78800
O2976       O  0.85748825  0.73561009  0.53941787    -0.89100
C2977       C  0.76796689  0.67847562  0.46712705     0.84800
O2978       O  0.89240149  0.73877066  0.49916681    -0.67300
O2979       O  0.79780053  0.60733931  0.45595437    -0.86600
C2980       C  0.88238828  0.73828651  0.47778363     0.85700
C2981       C  0.83658340  0.73994029  0.53081267     1.07200
H2982       H  0.83065560  0.66774040  0.46014151     0.39000
O2983       O  0.81884676  0.66126506  0.47533702    -1.09200
O2984       O  0.80817791  0.62494894  0.51931221    -0.65900
Ni2985     Ni  0.84130674  0.65222488  0.49820606     1.26300
O2986       O  0.85539025  0.72063471  0.47196084    -0.66100
O2987       O  0.83853868  0.61923320  0.47922577    -0.78400
C2988       C  0.89262491  0.66961301  0.52584832     0.85000
O2989       O  0.86754840  0.64772223  0.52116472    -0.65600
Ni2990     Ni  0.78078378  0.63180745  0.46654809     1.27400
Ni2991     Ni  0.82014197  0.69468185  0.49225248     1.26100
H2992       H  0.82842736  0.67735913  0.53017611     0.39600
N2993       N  0.87512230  0.50060589  0.71800407    -0.36100
N2994       N  0.89623030  0.54545116  0.75448296    -0.56600
N2995       N  0.88345273  0.50372741  0.79316999    -0.36100
N2996       N  0.86067702  0.95855036  0.75717802    -0.56600
C2997       C  0.89528686  0.52414859  0.70520379     0.27500
C2998       C  0.87405568  0.97680959  0.70672903     0.27500
C2999       C  0.90435702  0.52890078  0.80282960     0.27500
C3000       C  0.88644058  0.98183805  0.80382539     0.27500
C3001       C  0.89575149  0.56047696  0.73450193     0.36100
C3002       C  0.89784399  0.56175252  0.77453351     0.36100
C3003       C  0.84439202  0.94142677  0.73862754     0.36100
C3004       C  0.85042000  0.94300594  0.77824590     0.36100
C3005       C  0.90770258  0.51523615  0.68579016    -0.21400
C3006       C  0.89416652  0.98522454  0.68670414    -0.21400
C3007       C  0.92132124  0.52311301  0.81953624    -0.21400
C3008       C  0.91017372  0.99326397  0.81995252    -0.21400
C3009       C  0.89548348  0.58604876  0.74187287    -0.22400
C3010       C  0.89650396  0.58672143  0.76745806    -0.22400
C3011       C  0.82234376  0.91514769  0.74804034    -0.22400
C3012       C  0.82624994  0.91611774  0.77332775    -0.22400
C3013       C  0.90102315  0.55307330  0.71031769    -0.17800
C3014       C  0.85383635  0.94788567  0.71365593    -0.17800
C3015       C  0.86619394  0.95203502  0.80052339    -0.17800
C3016       C  0.90685738  0.55654653  0.79762347    -0.17800
H3017       H  0.92455938  0.52885797  0.67228882     0.15100
H3018       H  0.89855648  0.97122936  0.67405434     0.15100
H3019       H  0.93971428  0.53872807  0.83031610     0.15100
H3020       H  0.91811063  0.98131998  0.83126363     0.15100
H3021       H  0.89626698  0.60311409  0.73005282     0.13400
H3022       H  0.89856453  0.60456202  0.77925718     0.13400
H3023       H  0.80637916  0.89666302  0.73766220     0.13400
H3024       H  0.81370632  0.89862029  0.78633246     0.13400
H3025       H  0.86056449  0.50050414  0.73217590     0.26700
H3026       H  0.86587530  0.50151140  0.78208172     0.26700
N3027       N  0.59872490  0.59238179  0.70919244    -0.36100
N3028       N  0.63379648  0.58218862  0.74608613    -0.56600
N3029       N  0.60441233  0.59935054  0.78521730    -0.36100
N3030       N  0.56635133  0.60589081  0.74847212    -0.56600
C3031       C  0.61034079  0.57770133  0.69566679     0.27500
C3032       C  0.57520824  0.59101246  0.69667116     0.27500
C3033       C  0.62004748  0.59002258  0.79932437     0.27500
C3034       C  0.58549200  0.60409764  0.80058470     0.27500
C3035       C  0.64884580  0.58134450  0.72526350     0.36100
C3036       C  0.65010946  0.58194637  0.76547573     0.36100
C3037       C  0.55484606  0.61246632  0.72860363     0.36100
C3038       C  0.55765691  0.61601668  0.76865503     0.36100
C3039       C  0.59365923  0.56658337  0.67449123    -0.21400
C3040       C  0.57206741  0.57565009  0.67480423    -0.21400
C3041       C  0.61210284  0.59050870  0.82411757    -0.21400
C3042       C  0.59033821  0.59926426  0.82490083    -0.21400
C3043       C  0.67546514  0.58169802  0.73150462    -0.22400
C3044       C  0.67568715  0.58090040  0.75687971    -0.22400
C3045       C  0.53815401  0.62617619  0.73623876    -0.22400
C3046       C  0.53992285  0.62838258  0.76157462    -0.22400
C3047       C  0.63671824  0.57575059  0.70119425    -0.17800
C3048       C  0.55776947  0.60481342  0.70379079    -0.17800
C3049       C  0.56452453  0.61346828  0.79351651    -0.17800
C3050       C  0.64104668  0.58067565  0.79068504    -0.17800
H3051       H  0.59699912  0.55373804  0.65997094     0.15100
H3052       H  0.55587092  0.57121917  0.66052603     0.15100
H3053       H  0.62098655  0.58503956  0.84010997     0.15100
H3054       H  0.57933523  0.60168698  0.84159717     0.15100
H3055       H  0.69245059  0.58123348  0.71911662     0.13400
H3056       H  0.69298587  0.57981296  0.76742767     0.13400
H3057       H  0.52567207  0.63351131  0.72482629     0.13400
H3058       H  0.52943512  0.63814706  0.77340669     0.13400
H3059       H  0.60849309  0.60562077  0.72442663     0.26700
H3060       H  0.60726766  0.60342557  0.76636658     0.26700
N3061       N  0.51715263  0.90693575  0.78416569    -0.36100
N3062       N  0.96828803  0.88811751  0.74957122    -0.56600
N3063       N  0.51210878  0.91168711  0.70953774    -0.36100
N3064       N  0.56108947  0.92833325  0.74427892    -0.56600
C3065       C  0.99320833  0.88923310  0.79846015     0.27500
C3066       C  0.54196123  0.90915166  0.79516030     0.27500
C3067       C  0.98703608  0.89568094  0.69661052     0.27500
C3068       C  0.53576353  0.91798463  0.69397400     0.27500
C3069       C  0.95264601  0.88481469  0.77108346     0.36100
C3070       C  0.94984129  0.88586640  0.73100204     0.36100
C3071       C  0.57851670  0.94131479  0.76394921     0.36100
C3072       C  0.57571423  0.94435500  0.72411360     0.36100
C3073       C  0.00270464  0.87970389  0.81861009    -0.21400
C3074       C  0.53341259  0.89171062  0.81622428    -0.21400
C3075       C  0.99489021  0.89161969  0.67256688    -0.21400
C3076       C  0.52569877  0.90571967  0.67090236    -0.21400
C3077       C  0.92391613  0.88012036  0.76619291    -0.22400
C3078       C  0.92209567  0.88065283  0.74073966    -0.22400
C3079       C  0.60407811  0.96608147  0.75622041    -0.22400
C3080       C  0.60259084  0.96758453  0.73086954    -0.22400
C3081       C  0.96341822  0.88369025  0.79480007    -0.17800
C3082       C  0.57185640  0.92964845  0.78833274    -0.17800
C3083       C  0.56590096  0.93689000  0.69955127    -0.17800
C3084       C  0.95739040  0.88671706  0.70541550    -0.17800
H3085       H  0.98895625  0.86578241  0.83359049     0.15100
H3086       H  0.54789368  0.88890700  0.82914800     0.15100
H3087       H  0.97997028  0.88019608  0.65762498     0.15100
H3088       H  0.53912925  0.90734751  0.65442854     0.15100
H3089       H  0.90599790  0.87614265  0.77951802     0.13400
H3090       H  0.90256716  0.87735368  0.73056763     0.13400
H3091       H  0.62207937  0.98132827  0.76753400     0.13400
H3092       H  0.61926496  0.98385991  0.71876882     0.13400
H3093       H  0.51677056  0.92009957  0.76989809     0.26700
H3094       H  0.51311698  0.92101384  0.72690145     0.26700
C3095       C  0.97302457  0.66077949  0.59500316     0.02800
C3096       C  0.50384177  0.66928836  0.59246439     0.02800
C3097       C  0.51744034  0.66023293  0.61035645    -0.17700
C3098       C  0.50127082  0.64357578  0.63102395     0.02800
C3099       C  0.97061907  0.63650397  0.63411939     0.02800
C3100       C  0.95704303  0.64520516  0.61600420    -0.17700
H3101       H  0.93337909  0.63900109  0.61787417     0.04800
H3102       H  0.54099220  0.66621680  0.60809041     0.04800
C3103       C  0.70091036  0.51985683  0.58545672     0.02800
C3104       C  0.68301982  0.98903186  0.58454542     0.02800
C3105       C  0.66156545  0.97513294  0.60348453    -0.17700
C3106       C  0.65689300  0.99082416  0.62277205     0.02800
C3107       C  0.67612097  0.52116415  0.62481977     0.02800
C3108       C  0.69780999  0.53519666  0.60607771    -0.17700
H3109       H  0.71172500  0.55863400  0.60701466     0.04800
H3110       H  0.64727319  0.95173782  0.60258808     0.04800
C3111       C  0.85135328  0.83052430  0.91472427     0.02800
C3112       C  0.83080953  0.84197002  0.91282643     0.02800
C3113       C  0.83360350  0.85970953  0.89251148    -0.17700
C3114       C  0.85641791  0.86712116  0.87438598     0.02800
C3115       C  0.87745509  0.85645759  0.87655197     0.02800
C3116       C  0.87466953  0.83848677  0.89680161    -0.17700
H3117       H  0.89042615  0.82987368  0.89824089     0.04800
H3118       H  0.81799496  0.86851032  0.89103330     0.04800
C3119       C  0.81685212  0.83938437  0.59959521     0.02800
C3120       C  0.83465306  0.82504696  0.59800264     0.02800
C3121       C  0.85724912  0.83179108  0.61548591    -0.17700
C3122       C  0.86150003  0.85153895  0.63497179     0.02800
C3123       C  0.84068407  0.86262981  0.63826431     0.02800
C3124       C  0.81876133  0.85618954  0.62046715    -0.17700
H3125       H  0.80285135  0.86465800  0.62265208     0.04800
H3126       H  0.87197134  0.82192714  0.61360188     0.04800
C3127       C  0.69901559  0.52012125  0.90246120     0.02800
C3128       C  0.68900922  0.98966454  0.90075068     0.02800
C3129       C  0.67105088  0.97404815  0.88074742    -0.17700
C3130       C  0.66286118  0.98777827  0.86239193     0.02800
C3131       C  0.67450355  0.51863284  0.86308685     0.02800
C3132       C  0.69237115  0.53404055  0.88310802    -0.17700
H3133       H  0.70029383  0.55735371  0.88425090     0.04800
H3134       H  0.66192658  0.95052294  0.88019467     0.04800
C3135       C  0.51285357  0.67789516  0.90929793     0.02800
C3136       C  0.98183681  0.66922960  0.90934154     0.02800
C3137       C  0.96433282  0.65128512  0.89023433    -0.17700
C3138       C  0.97649020  0.64067424  0.87162476     0.02800
C3139       C  0.50744023  0.64890970  0.87174382     0.02800
C3140       C  0.52509688  0.66731668  0.89058737    -0.17700
H3141       H  0.54894022  0.67413847  0.89034236     0.04800
H3142       H  0.94062902  0.64507225  0.89014940     0.04800
O3143       O  0.60869524  0.84693442  0.48120032    -0.80400
O3144       O  0.71862409  0.85221323  0.53117531    -0.65100
O3145       O  0.65915771  0.83923166  0.48326613    -1.11700
C3146       C  0.59901835  0.75781670  0.53531202     1.06500
O3147       O  0.70623875  0.80614629  0.52545174    -0.78300
O3148       O  0.65928884  0.76280130  0.50507449    -0.65800
Ni3149     Ni  0.65039228  0.86855932  0.47204505     1.34900
C3150       C  0.64935106  0.76405767  0.48410354     0.85300
O3151       O  0.71934035  0.88042752  0.48824631    -0.78800
O3152       O  0.69155096  0.89187340  0.46268979    -0.89100
C3153       C  0.72304122  0.83038719  0.53534148     0.84800
O3154       O  0.65713586  0.89103132  0.50135017    -0.67300
O3155       O  0.62355228  0.76081999  0.54408233    -0.86600
C3156       C  0.67093638  0.89327907  0.52118027     0.85700
C3157       C  0.71663676  0.89611369  0.47123320     1.07200
H3158       H  0.65143094  0.82238606  0.53872771     0.39000
O3159       O  0.65744678  0.81519282  0.52415534    -1.09200
O3160       O  0.63792357  0.78080241  0.47964210    -0.65900
Ni3161     Ni  0.62781504  0.80640897  0.49993779     1.26300
O3162       O  0.68169927  0.87606556  0.52645743    -0.66100
O3163       O  0.59743325  0.77362264  0.51798828    -0.78400
C3164       C  0.59182490  0.82166395  0.47279327     0.85000
O3165       O  0.59874160  0.80131891  0.47567724    -0.65600
Ni3166     Ni  0.66493275  0.78444204  0.53485842     1.27400
Ni3167     Ni  0.68924885  0.84794794  0.50703945     1.26100
H3168       H  0.66534007  0.83234621  0.46861279     0.39600
O3169       O  0.70041032  0.78896609  0.02009009    -0.80400
O3170       O  0.70027554  0.88815809  0.96560176    -0.65100
O3171       O  0.68353880  0.83172496  0.01628497    -1.11700
C3172       C  0.60343569  0.77275852  0.96517962     1.06500
O3173       O  0.65330877  0.87996861  0.96898781    -0.78300
O3174       O  0.61456547  0.83689523  0.99905433    -0.65800
Ni3175     Ni  0.71508621  0.82837696  0.03127109     1.34900
C3176       C  0.61096193  0.82061826  0.01755693     0.85300
O3177       O  0.72563261  0.89069972  0.00923594    -0.78800
O3178       O  0.73067240  0.86785899  0.04268880    -0.89100
C3179       C  0.68034595  0.89598211  0.96174216     0.84800
O3180       O  0.74381646  0.84042309  0.00443983    -0.67300
O3181       O  0.60339230  0.79705698  0.96165823    -0.86600
C3182       C  0.74130162  0.84408982  0.98158624     0.85700
C3183       C  0.73525085  0.89085432  0.03090551     1.07200
H3184       H  0.66816523  0.82512211  0.95955499     0.39000
O3185       O  0.66094143  0.82978913  0.97467733    -1.09200
O3186       O  0.62260029  0.80344930  0.01845958    -0.65900
Ni3187     Ni  0.65338117  0.79969831  0.99835379     1.26300
O3188       O  0.72080691  0.84943041  0.97360516    -0.66100
O3189       O  0.62238850  0.76985859  0.97875764    -0.78400
C3190       C  0.67505295  0.76871510  0.02695947     0.85000
O3191       O  0.65129365  0.77044943  0.02178284    -0.65600
Ni3192     Ni  0.62953540  0.83793624  0.96622057     1.27400
Ni3193     Ni  0.69351355  0.86032444  0.99124371     1.26100
H3194       H  0.67375554  0.83692431  0.02956482     0.39600
N3195       N  0.99500235  0.59777517  0.21230747    -0.36100
N3196       N  0.94772223  0.57674014  0.25054377    -0.56600
N3197       N  0.99160117  0.61045847  0.28635182    -0.36100
N3198       N  0.53878388  0.63340756  0.24891013    -0.56600
C3199       C  0.97026573  0.58530818  0.19808194     0.27500
C3200       C  0.51915518  0.61311393  0.19713206     0.27500
C3201       C  0.96601452  0.60212497  0.29974668     0.27500
C3202       C  0.51320202  0.63315969  0.29834881     0.27500
C3203       C  0.93240854  0.55928465  0.23167869     0.36100
C3204       C  0.93186208  0.56425558  0.27152371     0.36100
C3205       C  0.55791107  0.63610126  0.22987524     0.36100
C3206       C  0.55515770  0.64119739  0.26978138     0.36100
C3207       C  0.97883300  0.59296696  0.17354886    -0.21400
C3208       C  0.50948630  0.60919369  0.17280354    -0.21400
C3209       C  0.97113731  0.62003348  0.32026512    -0.21400
C3210       C  0.50098711  0.64005710  0.31914716    -0.21400
C3211       C  0.90644813  0.53581430  0.24072305    -0.22400
C3212       C  0.90610835  0.53909177  0.26600739    -0.22400
C3213       C  0.58678711  0.64733120  0.23883966    -0.22400
C3214       C  0.58464726  0.64860195  0.26399331    -0.22400
C3215       C  0.94063041  0.56522095  0.20631547    -0.17800
C3216       C  0.54968030  0.62894633  0.20463458    -0.17800
C3217       C  0.54401726  0.64340315  0.29366630    -0.17800
C3218       C  0.93946683  0.57650507  0.29535487    -0.17800
H3219       H  0.96471656  0.58646834  0.15752308     0.15100
H3220       H  0.52270636  0.61644443  0.15585120     0.15100
H3221       H  0.95533240  0.61821897  0.33495252     0.15100
H3222       H  0.51283778  0.65647090  0.33298333     0.15100
H3223       H  0.88945040  0.51822950  0.23021885     0.13400
H3224       H  0.88861362  0.52511867  0.27882501     0.13400
H3225       H  0.60785529  0.65435146  0.22895664     0.13400
H3226       H  0.60325752  0.65507284  0.27623941     0.13400
H3227       H  0.99590816  0.59347958  0.23089950     0.26700
H3228       H  0.99514424  0.59792003  0.27275019     0.26700
N3229       N  0.90181326  0.90623249  0.28354097    -0.36100
N3230       N  0.87027014  0.91672227  0.24463112    -0.56600
N3231       N  0.89997418  0.89517219  0.20922147    -0.36100
N3232       N  0.93047780  0.88372660  0.24859237    -0.56600
C3233       C  0.89260068  0.92392985  0.29527418     0.27500
C3234       C  0.92299424  0.90535638  0.29780470     0.27500
C3235       C  0.87933752  0.89646138  0.19449545     0.27500
C3236       C  0.91236674  0.88072945  0.19634010     0.27500
C3237       C  0.85889389  0.92589022  0.26374709     0.36100
C3238       C  0.85898921  0.92124205  0.22368534     0.36100
C3239       C  0.94022527  0.87772074  0.26968103     0.36100
C3240       C  0.94144826  0.87389180  0.22978012     0.36100
C3241       C  0.90873612  0.93496995  0.31666998    -0.21400
C3242       C  0.92725941  0.92264826  0.31864341    -0.21400
C3243       C  0.87834556  0.88225011  0.17227996    -0.21400
C3244       C  0.89944502  0.87271337  0.17331254    -0.21400
C3245       C  0.83949582  0.93539999  0.25492410    -0.22400
C3246       C  0.84123498  0.93443870  0.22968027    -0.22400
C3247       C  0.95693485  0.86338854  0.26433660    -0.22400
C3248       C  0.95839078  0.86162354  0.23895869    -0.22400
C3249       C  0.86833150  0.92859562  0.28853474    -0.17800
C3250       C  0.93713052  0.88786998  0.29336213    -0.17800
C3251       C  0.93504274  0.87441961  0.20456512    -0.17800
C3252       C  0.86279159  0.91181630  0.19958966    -0.17800
H3253       H  0.90670353  0.94973137  0.32996559     0.15100
H3254       H  0.94193256  0.92606923  0.33392931     0.15100
H3255       H  0.86409818  0.87935476  0.15673228     0.15100
H3256       H  0.90439469  0.86082229  0.15886298     0.15100
H3257       H  0.82584938  0.94304267  0.26513140     0.13400
H3258       H  0.82988449  0.94227668  0.21761220     0.13400
H3259       H  0.96774439  0.85584714  0.27734679     0.13400
H3260       H  0.97000857  0.85181803  0.22856902     0.13400
H3261       H  0.89146250  0.89242645  0.26872244     0.26700
H3262       H  0.90764392  0.90647118  0.22571286     0.26700
C3263       C  0.81438824  0.98022017  0.41207874     0.02800
C3264       C  0.83190353  0.51072391  0.41387597     0.02800
C3265       C  0.85492631  0.52552663  0.39642868    -0.17700
C3266       C  0.85868509  0.51144222  0.37547314     0.02800
C3267       C  0.83877300  0.98133888  0.37194348     0.02800
C3268       C  0.81772207  0.96603683  0.39084038    -0.17700
H3269       H  0.80289799  0.94291046  0.38867900     0.04800
H3270       H  0.86868552  0.54892827  0.39823709     0.04800
N3271       N  0.60480185  0.99884585  0.29038114    -0.36100
N3272       N  0.61485551  0.53996047  0.25003935    -0.56600
N3273       N  0.60474599  0.99420993  0.21414454    -0.36100
N3274       N  0.59397676  0.95348923  0.25373677    -0.56600
C3275       C  0.60513681  0.52162919  0.30339391     0.27500
C3276       C  0.59053363  0.97436630  0.30465371     0.27500
C3277       C  0.60151576  0.51395307  0.20011575     0.27500
C3278       C  0.59005277  0.96806539  0.20272404     0.27500
C3279       C  0.62303674  0.55900964  0.26931067     0.36100
C3280       C  0.62264112  0.55599407  0.22881704     0.36100
C3281       C  0.59517812  0.94002774  0.27460803     0.36100
C3282       C  0.59692718  0.93816222  0.23438224     0.36100
C3283       C  0.59212278  0.51162008  0.32664850    -0.21400
C3284       C  0.58186567  0.98195436  0.32703392    -0.21400
C3285       C  0.58438789  0.50015402  0.17971891    -0.21400
C3286       C  0.57648436  0.97112084  0.18176135    -0.21400
C3287       C  0.63540874  0.58727239  0.26012461    -0.22400
C3288       C  0.63533910  0.58532691  0.23462378    -0.22400
C3289       C  0.60002854  0.91648129  0.26851251    -0.22400
C3290       C  0.60120276  0.91533576  0.24295743    -0.22400
C3291       C  0.61721830  0.55118598  0.29495773    -0.17800
C3292       C  0.58654522  0.94581976  0.29838813    -0.17800
C3293       C  0.59095197  0.94224730  0.20966424    -0.17800
C3294       C  0.61576282  0.54430321  0.20441746    -0.17800
H3295       H  0.58967786  0.52402131  0.34194857     0.15100
H3296       H  0.56959246  0.96793327  0.34241073     0.15100
H3297       H  0.57806214  0.50963720  0.16476054     0.15100
H3298       H  0.56299122  0.95433642  0.16880306     0.15100
H3299       H  0.64301379  0.60731523  0.27056091     0.13400
H3300       H  0.64273758  0.60339323  0.22186377     0.13400
H3301       H  0.60086189  0.90083736  0.28114758     0.13400
H3302       H  0.60330915  0.89873391  0.23200877     0.13400
H3303       H  0.61585771  0.00052396  0.27346441     0.26700
H3304       H  0.61938077  0.99902856  0.22879449     0.26700
C3305       C  0.80466383  0.98032469  0.09640695     0.02800
C3306       C  0.81910725  0.51068340  0.10003388     0.02800
C3307       C  0.83846448  0.52250023  0.12009125    -0.17700
C3308       C  0.84500226  0.50482617  0.13567105     0.02800
C3309       C  0.83029906  0.97418536  0.13157673     0.02800
C3310       C  0.80967748  0.96244264  0.11268945    -0.17700
H3311       H  0.79886452  0.93906463  0.10953546     0.04800
H3312       H  0.85032460  0.54597749  0.12242450     0.04800
C3313       C  0.67077061  0.67031048  0.40625774     0.02800
C3314       C  0.65386395  0.68571688  0.40817491     0.02800
C3315       C  0.63272978  0.68116109  0.39010437    -0.17700
C3316       C  0.62702328  0.66107371  0.37081566     0.02800
C3317       C  0.64257179  0.64422263  0.36914713     0.02800
C3318       C  0.66458934  0.64960844  0.38695212    -0.17700
H3319       H  0.67689130  0.63720441  0.38605861     0.04800
H3320       H  0.62000032  0.69318478  0.39127491     0.04800
C3321       C  0.68007808  0.65511545  0.08727919     0.02800
C3322       C  0.66691471  0.67395763  0.08848664     0.02800
C3323       C  0.64854742  0.67219964  0.10906364    -0.17700
C3324       C  0.63990731  0.65022694  0.12716586     0.02800
C3325       C  0.64944653  0.62835521  0.12376677     0.02800
C3326       C  0.67037703  0.63207294  0.10449328    -0.17700
H3327       H  0.67918722  0.61665633  0.10270479     0.04800
H3328       H  0.64120465  0.68868739  0.11086704     0.04800
C3329       C  0.97558149  0.81933745  0.41028285     0.02800
C3330       C  0.50611269  0.82605953  0.40902464     0.02800
C3331       C  0.52490622  0.84396819  0.38974533    -0.17700
C3332       C  0.51442221  0.85632382  0.37191544     0.02800
C3333       C  0.98383647  0.85019589  0.37374486     0.02800
C3334       C  0.96538133  0.83259492  0.39327903    -0.17700
H3335       H  0.94236592  0.82865240  0.39507960     0.04800
H3336       H  0.54830319  0.84898909  0.38905845     0.04800
C3337       C  0.53339488  0.82757645  0.09600518     0.02800
C3338       C  0.00202558  0.81703051  0.09527936     0.02800
C3339       C  0.98823533  0.82753333  0.11260396    -0.17700
C3340       C  0.00389616  0.84587063  0.13205108     0.02800
C3341       C  0.53488445  0.85472145  0.13421873     0.02800
C3342       C  0.54930242  0.84613936  0.11565846    -0.17700
H3343       H  0.57329481  0.85407240  0.11642358     0.04800
H3344       H  0.96435400  0.82024136  0.11149352     0.04800
C3345       C  0.53615473  0.87678053  0.35262741     0.00400
C3346       C  0.52946946  0.87219319  0.32727493    -0.11500
C3347       C  0.54543386  0.89411005  0.30954957     0.02600
C3348       C  0.57064078  0.92055563  0.31647462     0.00300
C3349       C  0.57946081  0.92338145  0.34133823    -0.11400
C3350       C  0.56189622  0.90261224  0.35943164     0.02500
H3351       H  0.01006096  0.85240108  0.32160924     0.15500
H3352       H  0.59914042  0.94289859  0.34701771     0.15500
C3353       C  0.56926184  0.90959825  0.38516231     0.37100
C3354       C  0.53424402  0.88955910  0.28466529     0.37000
N3355       N  0.57480511  0.91510147  0.40585969    -0.43200
N3356       N  0.02598955  0.88628455  0.26449820    -0.43200
C3357       C  0.58132445  0.91770657  0.19122927     0.00400
C3358       C  0.55775226  0.89022140  0.19770682    -0.11500
C3359       C  0.54449179  0.86829365  0.17989216     0.02600
C3360       C  0.55292225  0.87441528  0.15458992     0.00300
C3361       C  0.57818801  0.90085114  0.14839635    -0.11400
C3362       C  0.59289569  0.92207443  0.16651339     0.02500
H3363       H  0.54904563  0.88602386  0.21662896     0.15500
H3364       H  0.58572663  0.90547241  0.12916776     0.15500
C3365       C  0.61891073  0.94868491  0.15896187     0.37100
C3366       C  0.02280379  0.83959809  0.18817664     0.37000
N3367       N  0.63959028  0.97003518  0.15273437    -0.43200
N3368       N  0.00570559  0.81658866  0.19507271    -0.43200
C3369       C  0.62319394  0.57513725  0.31378346     0.00400
C3370       C  0.65280929  0.59673420  0.31773797    -0.11500
C3371       C  0.65933477  0.61985698  0.33460019     0.03000
C3372       C  0.63627247  0.62089665  0.34949146     0.00300
C3373       C  0.60685853  0.59851136  0.34605910    -0.11400
C3374       C  0.59999230  0.57716289  0.32749077     0.02500
H3375       H  0.67091905  0.59596572  0.30704151     0.15500
H3376       H  0.58896839  0.59717264  0.35808816     0.15500
C3377       C  0.56886414  0.55787806  0.32258094     0.37100
C3378       C  0.68986675  0.64268822  0.33566234     0.37000
N3379       N  0.54396841  0.54237894  0.31858570    -0.43200
N3380       N  0.71435686  0.66102934  0.33640399    -0.43200
C3381       C  0.63967218  0.60254491  0.14084753     0.00400
C3382       C  0.66164647  0.59828452  0.15298548    -0.11500
C3383       C  0.65413177  0.57930136  0.17336133     0.02600
C3384       C  0.62415037  0.56423548  0.18227683     0.00300
C3385       C  0.60188967  0.56663094  0.16883911    -0.11400
C3386       C  0.60926711  0.58440670  0.14759908     0.02500
H3387       H  0.68504106  0.61128698  0.14763857     0.15500
H3388       H  0.57864771  0.55452080  0.17491713     0.15500
C3389       C  0.58540153  0.58453668  0.13353916     0.37100
C3390       C  0.67779186  0.57613881  0.18509963     0.37000
N3391       N  0.56636505  0.58471858  0.12219245    -0.43200
N3392       N  0.69695395  0.57370985  0.19427736    -0.43200
C3393       C  0.97001870  0.86064469  0.35495267     0.00400
C3394       C  0.98461873  0.89005127  0.34749896    -0.11500
C3395       C  0.97553239  0.89903125  0.32650362     0.02600
C3396       C  0.94901668  0.87945846  0.31482100     0.00300
C3397       C  0.93287552  0.85085359  0.32352698    -0.11400
C3398       C  0.94348032  0.84102726  0.34292874     0.02500
H3399       H  0.50442250  0.90556285  0.35697832     0.15500
H3400       H  0.91245024  0.83585139  0.31443685     0.15500
C3401       C  0.92717597  0.81045241  0.34927777     0.37100
C3402       C  0.99439868  0.92779145  0.31654753     0.37000
N3403       N  0.91390664  0.78603351  0.35453214    -0.43200
N3404       N  0.50959268  0.95071637  0.30838131    -0.43200
C3405       C  0.95200975  0.86661502  0.18562057     0.00400
C3406       C  0.97539083  0.88913439  0.17215375    -0.11500
C3407       C  0.99224242  0.88295436  0.15424559     0.02600
C3408       C  0.98630472  0.85386314  0.15022101     0.00300
C3409       C  0.96205814  0.83131878  0.16299948    -0.11400
C3410       C  0.94491058  0.83744991  0.18054861     0.02500
H3411       H  0.98023704  0.91155316  0.17549647     0.15500
H3412       H  0.95681151  0.80882836  0.15947621     0.15500
C3413       C  0.92020350  0.81356475  0.19313189     0.37100
C3414       C  0.01429272  0.90648703  0.13932766     0.37000
N3415       N  0.90042525  0.79438771  0.20322444    -0.43200
N3416       N  0.03177156  0.92523891  0.12713907    -0.43200
C3417       C  0.85448756  0.93903043  0.30856280     0.00400
C3418       C  0.85316707  0.96526248  0.30580291    -0.11500
C3419       C  0.84274338  0.97635995  0.32522333     0.02600
C3420       C  0.84004726  0.96508476  0.34935122     0.00300
C3421       C  0.83991403  0.93813049  0.35205284    -0.11400
C3422       C  0.84510958  0.92420125  0.33157616     0.02500
H3423       H  0.86001106  0.97708116  0.28848730     0.15500
H3424       H  0.83638608  0.92815076  0.37021587     0.15500
C3425       C  0.84232282  0.89544255  0.33498070     0.37100
C3426       C  0.83289657  0.49758498  0.31955965     0.37000
N3427       N  0.84013984  0.87243412  0.33771132    -0.43200
N3428       N  0.82432119  0.51402055  0.31472455    -0.43200
C3429       C  0.85086601  0.92059122  0.17802794     0.00400
C3430       C  0.87089972  0.93665072  0.15873927    -0.11500
C3431       C  0.86235905  0.95062316  0.14119254     0.02600
C3432       C  0.83641299  0.95357923  0.14584372     0.00300
C3433       C  0.81450137  0.93401856  0.16236830    -0.11400
C3434       C  0.82094530  0.91571338  0.17709820     0.02500
H3435       H  0.89309094  0.93830798  0.15733936     0.15500
H3436       H  0.79256113  0.93297684  0.16362086     0.15500
C3437       C  0.79718025  0.89312811  0.19166068     0.37100
C3438       C  0.87884245  0.95951659  0.11787284     0.37000
N3439       N  0.77805893  0.87491638  0.20316542    -0.43200
N3440       N  0.89170129  0.96637776  0.09901483    -0.43200
C3441       C  0.91973496  0.56123888  0.31686898     0.00400
C3442       C  0.92369542  0.53934288  0.32863627    -0.11500
C3443       C  0.90497463  0.52366114  0.34856500     0.02600
C3444       C  0.88172316  0.52973823  0.35671625     0.00300
C3445       C  0.87919502  0.55304973  0.34594868    -0.11400
C3446       C  0.89758547  0.56837268  0.32579247     0.02500
H3447       H  0.94126083  0.53434783  0.32203803     0.15500
H3448       H  0.86155974  0.55806015  0.35232499     0.15500
C3449       C  0.89280133  0.59061374  0.31395938     0.37100
C3450       C  0.91006761  0.00166648  0.36049199     0.37000
N3451       N  0.88907575  0.60841026  0.30429327    -0.43200
N3452       N  0.91403309  0.98404419  0.37020860    -0.43200
C3453       C  0.86876004  0.51953135  0.15452954     0.00400
C3454       C  0.89619566  0.51904489  0.15154177    -0.11500
C3455       C  0.91894864  0.53205971  0.16876874     0.02600
C3456       C  0.91646367  0.54980406  0.18775813     0.00300
C3457       C  0.88975422  0.55210241  0.18985832    -0.11400
C3458       C  0.86575972  0.53653841  0.17399066     0.02500
H3459       H  0.90036784  0.50903451  0.13542717     0.15500
H3460       H  0.88737153  0.56555817  0.20440135     0.15500
C3461       C  0.83834328  0.53839956  0.17806406     0.37100
C3462       C  0.94408481  0.52601387  0.16689543     0.37000
N3463       N  0.81639186  0.03992280  0.18142790    -0.43200
N3464       N  0.96406275  0.52092062  0.16538152    -0.43200
C3465       C  0.60474552  0.65884802  0.35265972     0.00400
C3466       C  0.61328455  0.67929035  0.33336775    -0.11500
C3467       C  0.59245204  0.67713380  0.31573357     0.02600
C3468       C  0.56415656  0.65202690  0.31545894     0.00300
C3469       C  0.55509698  0.63345198  0.33626312    -0.11400
C3470       C  0.57436869  0.63858923  0.35581402     0.02500
H3471       H  0.63589829  0.69718495  0.33245999     0.15500
H3472       H  0.53287169  0.61497926  0.33742205     0.15500
C3473       C  0.56243221  0.62356116  0.37906954     0.37100
C3474       C  0.60037447  0.70077812  0.29840532     0.37000
N3475       N  0.55273740  0.61197789  0.39784691    -0.43200
N3476       N  0.60665106  0.71980035  0.28462289    -0.43200
C3477       C  0.57441992  0.63763556  0.18530702     0.00400
C3478       C  0.59695521  0.62929437  0.18821456    -0.11500
C3479       C  0.62215444  0.64044617  0.17242438     0.02600
C3480       C  0.62015661  0.65022425  0.14865654     0.00300
C3481       C  0.59783740  0.65898929  0.14551744    -0.11400
C3482       C  0.57729064  0.65565418  0.16485968     0.02500
H3483       H  0.59628221  0.61621251  0.20397513     0.15500
H3484       H  0.59634740  0.66870128  0.12831725     0.15500
C3485       C  0.56001654  0.67126374  0.16356176     0.37100
C3486       C  0.65030761  0.64444272  0.18183522     0.37000
N3487       N  0.54622567  0.68382830  0.16270911    -0.43200
N3488       N  0.67308004  0.64843157  0.18954122    -0.43200
C3489       C  0.67413254  0.74336887  0.04085088     0.00400
C3490       C  0.64794270  0.71643330  0.04133904    -0.11500
C3491       C  0.64620993  0.69284604  0.05519102     0.02600
C3492       C  0.67086687  0.69580758  0.06907634     0.00300
C3493       C  0.69730140  0.72220955  0.06802785    -0.11400
C3494       C  0.69928339  0.74576846  0.05407901     0.02500
H3495       H  0.62863970  0.71385594  0.03114763     0.15500
H3496       H  0.71603918  0.72487548  0.07909743     0.15500
C3497       C  0.72719609  0.77250726  0.05481969     0.37100
C3498       C  0.61851269  0.66586833  0.05564661     0.37000
N3499       N  0.74963602  0.79385383  0.05532905    -0.43200
N3500       N  0.59646401  0.64411744  0.05626164    -0.43200
C3501       C  0.59184928  0.82200729  0.03856602     0.00400
C3502       C  0.57222368  0.79662829  0.05175296    -0.11500
C3503       C  0.55209238  0.79734172  0.07009172     0.02600
C3504       C  0.55128292  0.82372892  0.07525732     0.00300
C3505       C  0.57097310  0.84890960  0.06220370    -0.11400
C3506       C  0.59139838  0.84846072  0.04447622     0.02500
H3507       H  0.57232434  0.77618884  0.04752047     0.15500
H3508       H  0.57105540  0.86943221  0.06654807     0.15500
C3509       C  0.61299183  0.87601780  0.03388690     0.37100
C3510       C  0.53298492  0.77100807  0.08357960     0.37000
N3511       N  0.63048395  0.89819212  0.02572259    -0.43200
N3512       N  0.51762300  0.74980889  0.09429779    -0.43200
C3513       C  0.75193883  0.91898990  0.04344124     0.00400
C3514       C  0.78272884  0.93564511  0.03852098    -0.11500
C3515       C  0.80024839  0.95908948  0.05394901     0.02600
C3516       C  0.78676049  0.96581280  0.07456103     0.00300
C3517       C  0.75558399  0.95093242  0.07788783    -0.11400
C3518       C  0.73807463  0.92771112  0.06239317     0.02500
H3519       H  0.79334735  0.92912993  0.02373963     0.15500
H3520       H  0.74523171  0.95568730  0.09395774     0.15500
C3521       C  0.70618018  0.91197706  0.06729007     0.37100
C3522       C  0.83232862  0.97406015  0.04986699     0.37000
N3523       N  0.68062141  0.89951913  0.07126786    -0.43200
N3524       N  0.85804107  0.98610317  0.04664928    -0.43200
C3525       C  0.65124304  0.74460986  0.46441607     0.00400
C3526       C  0.64382579  0.71576860  0.47071249    -0.11500
C3527       C  0.64575446  0.69650832  0.45312763     0.02600
C3528       C  0.65634168  0.70625493  0.42872074     0.00300
C3529       C  0.66430308  0.73531003  0.42258716    -0.11400
C3530       C  0.66169384  0.75436113  0.44006334     0.02500
H3531       H  0.63558594  0.70795871  0.48936182     0.15500
H3532       H  0.67183620  0.74290193  0.40378209     0.15500
C3533       C  0.67049600  0.78395200  0.43269405     0.37100
C3534       C  0.63465538  0.66651132  0.46042148     0.37000
N3535       N  0.67758701  0.80769975  0.42679097    -0.43200
N3536       N  0.62521663  0.64265156  0.46707180    -0.43200
C3537       C  0.56443648  0.81699938  0.45972331     0.00400
C3538       C  0.55267223  0.83630805  0.46497647    -0.11500
C3539       C  0.53146034  0.83773407  0.44977816     0.02600
C3540       C  0.52081021  0.81893580  0.42920646     0.00300
C3541       C  0.53069294  0.79805184  0.42495644    -0.11400
C3542       C  0.55239371  0.79691168  0.44000295     0.02500
H3543       H  0.56153974  0.85177940  0.48010016     0.15500
H3544       H  0.52306783  0.78408036  0.40877268     0.15500
C3545       C  0.56381157  0.77687019  0.43331785     0.37100
C3546       C  0.52362920  0.86091253  0.45406538     0.37000
N3547       N  0.57306011  0.76087316  0.42796643    -0.43200
N3548       N  0.01770033  0.87970101  0.45749525    -0.43200
C3549       C  0.74372292  0.92061495  0.46013678     0.00400
C3550       C  0.77004604  0.91814518  0.45686789    -0.11500
C3551       C  0.79418501  0.93873079  0.44273365     0.02600
C3552       C  0.79207773  0.96212861  0.43136191     0.00300
C3553       C  0.76666940  0.96578393  0.43618960    -0.11400
C3554       C  0.74290601  0.94571736  0.45091914     0.02500
H3555       H  0.77129563  0.89945804  0.46438251     0.15500
H3556       H  0.76479714  0.98366983  0.42773179     0.15500
C3557       C  0.71808653  0.95159476  0.45652258     0.37100
C3558       C  0.82064327  0.93495637  0.43955870     0.37000
N3559       N  0.69824334  0.95624770  0.46129323    -0.43200
N3560       N  0.84185807  0.93194920  0.43704443    -0.43200
C3561       C  0.58059598  0.74755844  0.95136331     0.00400
C3562       C  0.56232786  0.72076962  0.96319946    -0.11500
C3563       C  0.53902053  0.69786648  0.95035672     0.02600
C3564       C  0.53427602  0.70158980  0.92524697     0.00300
C3565       C  0.55278423  0.72811556  0.91351435    -0.11400
C3566       C  0.57537048  0.75101589  0.92623278     0.02500
H3567       H  0.56579576  0.71798534  0.98253675     0.15500
H3568       H  0.54949415  0.73092523  0.89411144     0.15500
C3569       C  0.59295581  0.77788012  0.91277792     0.37100
C3570       C  0.02050630  0.67082711  0.96313014     0.37000
N3571       N  0.60672599  0.79947225  0.90204617    -0.43200
N3572       N  0.00555244  0.64920133  0.97344645    -0.43200
C3573       C  0.69299085  0.97206226  0.92053213     0.00400
C3574       C  0.71224654  0.95978717  0.91590067    -0.11500
C3575       C  0.71021727  0.93639738  0.93024007     0.02600
C3576       C  0.68792316  0.92429661  0.94925948     0.00300
C3577       C  0.67014353  0.93806633  0.95487480    -0.11400
C3578       C  0.67269903  0.96180510  0.94088742     0.02500
H3579       H  0.72772584  0.96739513  0.90010079     0.15500
H3580       H  0.65332796  0.92956354  0.96969616     0.15500
C3581       C  0.65287332  0.97413232  0.94663027     0.37100
C3582       C  0.72969068  0.92389357  0.92370474     0.37000
N3583       N  0.63720405  0.98429104  0.95110784    -0.43200
N3584       N  0.74536253  0.91392716  0.91849969    -0.43200
C3585       C  0.79493155  0.83682477  0.58076044     0.00400
C3586       C  0.76990045  0.80985740  0.57728075    -0.11500
C3587       C  0.74639235  0.80735822  0.56268756     0.02600
C3588       C  0.74767236  0.83242119  0.55106686     0.00300
C3589       C  0.77299041  0.85947231  0.55446010    -0.11400
C3590       C  0.79657602  0.86182435  0.56904460     0.02500
H3591       H  0.76815200  0.79083607  0.58686620     0.15500
H3592       H  0.77445596  0.87878152  0.54563109     0.15500
C3593       C  0.82226480  0.89015161  0.57183056     0.37100
C3594       C  0.72066625  0.77885931  0.56127545     0.37000
N3595       N  0.84286472  0.91280683  0.57410924    -0.43200
N3596       N  0.70019099  0.75592336  0.56032295    -0.43200
C3597       C  0.80728501  0.83820263  0.93197092     0.00400
C3598       C  0.77748736  0.82770500  0.92448678    -0.11500
C3599       C  0.75565574  0.82927807  0.94021067     0.02600
C3600       C  0.76347654  0.84194881  0.96398762     0.00300
C3601       C  0.79304490  0.85166619  0.97173155    -0.11400
C3602       C  0.81487835  0.85017875  0.95595996     0.02500
H3603       H  0.77144848  0.81890729  0.90593936     0.15500
H3604       H  0.79941940  0.86137068  0.98996313     0.15500
C3605       C  0.84539206  0.86318719  0.96413402     0.37100
C3606       C  0.72526253  0.81692621  0.93175742     0.37000
N3607       N  0.86988435  0.87378210  0.97064361    -0.43200
N3608       N  0.70085378  0.80683488  0.92508443    -0.43200
C3609       C  0.67527144  0.91837140  0.53772665     0.00400
C3610       C  0.65561105  0.93048534  0.53542305    -0.11500
C3611       C  0.65956382  0.95533939  0.54873582     0.02600
C3612       C  0.68408156  0.96946146  0.56456299     0.00300
C3613       C  0.70425223  0.95798805  0.56654623    -0.11400
C3614       C  0.70015222  0.93280523  0.55330354     0.02500
H3615       H  0.63645798  0.92007584  0.52351510     0.15500
H3616       H  0.72247754  0.96793069  0.57941005     0.15500
C3617       C  0.72211010  0.92264457  0.55571579     0.37100
C3618       C  0.63661347  0.96443901  0.54744564     0.37000
N3619       N  0.73972250  0.91446418  0.55748337    -0.43200
N3620       N  0.61780982  0.97117676  0.54663659    -0.43200
C3621       C  0.52334681  0.68983808  0.57296884     0.00400
C3622       C  0.52691179  0.71835338  0.57308765    -0.11500
C3623       C  0.55051000  0.74063958  0.55971747     0.02600
C3624       C  0.57105067  0.73445925  0.54604625     0.00300
C3625       C  0.56640486  0.70561877  0.54465220    -0.11400
C3626       C  0.54260333  0.68328565  0.55777255     0.02500
H3627       H  0.51260400  0.72369593  0.58508847     0.15500
H3628       H  0.58199928  0.70073204  0.53393058     0.15500
C3629       C  0.53902570  0.65401326  0.55625812     0.37100
C3630       C  0.55473058  0.77004996  0.56216105     0.37000
N3631       N  0.53602144  0.63050598  0.55522364    -0.43200
N3632       N  0.55804567  0.79358811  0.56429778    -0.43200
C3633       C  0.94288897  0.87673725  0.81693424     0.00400
C3634       C  0.92380223  0.84757993  0.82328065    -0.11500
C3635       C  0.90352235  0.84057269  0.84350142     0.02600
C3636       C  0.90183781  0.86302911  0.85752791     0.00300
C3637       C  0.92204652  0.89217385  0.85184759    -0.11400
C3638       C  0.94228142  0.89913352  0.83165724     0.02500
H3639       H  0.92438465  0.83031512  0.81211812     0.15500
H3640       H  0.92127102  0.90956056  0.86269783     0.15500
C3641       C  0.96159435  0.92944326  0.82585782     0.37100
C3642       C  0.88321833  0.81024475  0.84847026     0.37000
N3643       N  0.97704330  0.95373288  0.82116279    -0.43200
N3644       N  0.86674056  0.78606290  0.85269115    -0.43200
C3645       C  0.63952675  0.96895039  0.84455532     0.00400
C3646       C  0.64753822  0.96161767  0.82141335    -0.11500
C3647       C  0.62559225  0.94626877  0.80369030     0.02600
C3648       C  0.59556905  0.94101015  0.80796352     0.00300
C3649       C  0.58784230  0.94724554  0.83177179    -0.11400
C3650       C  0.60889539  0.95858128  0.85047821     0.02500
H3651       H  0.67082601  0.96758683  0.81732050     0.15500
H3652       H  0.56521972  0.94351496  0.83591230     0.15500
C3653       C  0.59886968  0.46203493  0.87507795     0.37100
C3654       C  0.63435825  0.93553293  0.78178472     0.37000
N3655       N  0.59076343  0.46493363  0.89469420    -0.43200
N3656       N  0.64148272  0.92687659  0.76431952    -0.43200
C3657       C  0.58816000  0.94921747  0.67872254     0.00400
C3658       C  0.58637338  0.96927156  0.66246490    -0.11500
C3659       C  0.60762691  0.98195623  0.64318802     0.02600
C3660       C  0.63132167  0.97486196  0.64030756     0.00300
C3661       C  0.63175932  0.95325420  0.65538905    -0.11400
C3662       C  0.61078686  0.94084410  0.67480267     0.02500
H3663       H  0.56856890  0.97523333  0.66505577     0.15500
H3664       H  0.64961511  0.94734169  0.65288510     0.15500
C3665       C  0.61350120  0.92025331  0.69092978     0.37100
C3666       C  0.60465430  0.50192570  0.62644008     0.37000
N3667       N  0.61594398  0.90399943  0.70399052    -0.43200
N3668       N  0.60245695  0.51791451  0.61288615    -0.43200
C3669       C  0.93327829  0.87728509  0.68676544     0.00400
C3670       C  0.93135438  0.89835227  0.67189490    -0.11500
C3671       C  0.90913361  0.89024824  0.65405650     0.02600
C3672       C  0.88799577  0.86062111  0.65113887     0.00300
C3673       C  0.89140658  0.83941928  0.66472140    -0.11400
C3674       C  0.91351379  0.84756520  0.68269564     0.02500
H3675       H  0.94725881  0.92116779  0.67426835     0.15500
H3676       H  0.87576661  0.81654887  0.66221074     0.15500
C3677       C  0.91541945  0.82521807  0.69705245     0.37100
C3678       C  0.90875911  0.91252279  0.63848763     0.37000
N3679       N  0.91714128  0.80756084  0.70879215    -0.43200
N3680       N  0.90810324  0.93005466  0.62582137    -0.43200
C3681       C  0.54926230  0.62187813  0.81361051     0.00400
C3682       C  0.55902392  0.65157054  0.81808283    -0.11500
C3683       C  0.54534218  0.66061413  0.83663011     0.02600
C3684       C  0.52231845  0.63975824  0.85189986     0.00300
C3685       C  0.51263805  0.60996617  0.84751269    -0.11400
C3686       C  0.52542435  0.60090459  0.82815000     0.02500
H3687       H  0.57694404  0.66768858  0.80660174     0.15500
H3688       H  0.99464227  0.59380719  0.85890260     0.15500
C3689       C  0.01351111  0.57008880  0.82332510     0.37100
C3690       C  0.55419472  0.69132810  0.83878676     0.37000
N3691       N  0.00375653  0.54535975  0.81950274    -0.43200
N3692       N  0.56103550  0.71589031  0.84047527    -0.43200
C3693       C  0.65054902  0.56500014  0.80872575     0.00400
C3694       C  0.68059701  0.57607142  0.81553110    -0.11500
C3695       C  0.68915073  0.56089683  0.83234532     0.02600
C3696       C  0.66707244  0.53529919  0.84424121     0.00300
C3697       C  0.63701701  0.52648123  0.83909518    -0.11400
C3698       C  0.62882531  0.53926996  0.82029288     0.02500
H3699       H  0.69742270  0.59648242  0.80764846     0.15500
H3700       H  0.61948578  0.51007074  0.85018000     0.15500
C3701       C  0.59764910  0.52578064  0.81363100     0.37100
C3702       C  0.72059510  0.57251415  0.83739601     0.37000
N3703       N  0.57270807  0.51505315  0.80831518    -0.43200
N3704       N  0.74576073  0.58206658  0.84169928    -0.43200
C3705       C  0.67206873  0.53875045  0.64524246     0.00400
C3706       C  0.66799299  0.56296017  0.63937114    -0.11500
C3707       C  0.65849881  0.57655722  0.65758985     0.02600
C3708       C  0.65051050  0.56443835  0.68171044     0.00300
C3709       C  0.65615429  0.54114598  0.68764518    -0.11400
C3710       C  0.66909715  0.53003241  0.67024623     0.02500
H3711       H  0.67140242  0.57077545  0.62039672     0.15500
H3712       H  0.65127520  0.53212764  0.70621118     0.15500
C3713       C  0.68034885  0.51076304  0.67866966     0.37100
C3714       C  0.65697505  0.60271187  0.65101669     0.37000
N3715       N  0.68980099  0.99573342  0.68558105    -0.43200
N3716       N  0.65572274  0.62366440  0.64575331    -0.43200
C3717       C  0.51681521  0.63340532  0.64860981     0.00400
C3718       C  0.50396984  0.60364800  0.65480454    -0.11500
C3719       C  0.51641687  0.59376407  0.67296406     0.02600
C3720       C  0.54340505  0.61351030  0.68406279     0.00300
C3721       C  0.55700004  0.64295443  0.67710160    -0.11400
C3722       C  0.54384003  0.65311939  0.65987323     0.02500
H3723       H  0.48358720  0.58817949  0.64597876     0.15500
H3724       H  0.57758045  0.65824053  0.68581976     0.15500
C3725       C  0.55775314  0.68410495  0.65515412     0.37100
C3726       C  0.50063127  0.56352376  0.68030212     0.37000
N3727       N  0.56890283  0.70892238  0.65135564    -0.43200
N3728       N  0.48770832  0.53922148  0.68598408    -0.43200
C3729       C  0.92235975  0.58060758  0.81569094     0.00400
C3730       C  0.91310481  0.57558669  0.84076254    -0.11500
C3731       C  0.93030415  0.59482153  0.85921598     0.02600
C3732       C  0.95626131  0.62077520  0.85254171     0.00300
C3733       C  0.96397926  0.62701031  0.82732433    -0.11400
C3734       C  0.94827158  0.60662212  0.80906493     0.02500
H3735       H  0.89346378  0.55549979  0.84606344     0.15500
H3736       H  0.48356364  0.64708895  0.82198919     0.15500
C3737       C  0.96076540  0.61190538  0.78413133     0.37100
C3738       C  0.92212782  0.58629203  0.88484547     0.37000
N3739       N  0.47055988  0.61601527  0.76407002    -0.43200
N3740       N  0.91580084  0.57955497  0.90541303    -0.43200
C3741       C  0.85873926  0.88810857  0.85481542     0.00400
C3742       C  0.85958732  0.91443485  0.86247080    -0.11500
C3743       C  0.86039324  0.93465718  0.84525063     0.02600
C3744       C  0.86332750  0.93012065  0.81960870     0.00300
C3745       C  0.86318943  0.90400702  0.81199294    -0.11400
C3746       C  0.85898932  0.88235541  0.82916339     0.02500
H3747       H  0.85867640  0.91883791  0.88211871     0.15500
H3748       H  0.86527507  0.89998097  0.79243399     0.15500
C3749       C  0.85263305  0.85393563  0.81976729     0.37100
C3750       C  0.85692903  0.95918945  0.85450613     0.37000
N3751       N  0.84702932  0.83122823  0.81170601    -0.43200
N3752       N  0.85425184  0.97887857  0.86196218    -0.43200
C3753       C  0.91649376  0.57631823  0.69118786     0.00400
C3754       C  0.94194278  0.60228345  0.69764744    -0.11500
C3755       C  0.95833519  0.62351213  0.67979198     0.02600
C3756       C  0.95122476  0.61759910  0.65454445     0.00300
C3757       C  0.92516584  0.59234834  0.64821040    -0.11400
C3758       C  0.90721926  0.57245258  0.66632549     0.02500
H3759       H  0.94916851  0.60603391  0.71667126     0.15500
H3760       H  0.91887552  0.58800268  0.62892984     0.15500
C3761       C  0.87927968  0.54852843  0.65879986     0.37100
C3762       C  0.48159592  0.65133607  0.68793084     0.37000
N3763       N  0.85686556  0.52962712  0.65242823    -0.43200
N3764       N  0.49986073  0.67371267  0.69471070    -0.43200
C3765       C  0.84199009  0.88275064  0.65871840     0.00400
C3766       C  0.83875501  0.90739531  0.65259866    -0.11500
C3767       C  0.83902837  0.92677000  0.67075512     0.02600
C3768       C  0.84656919  0.92403999  0.69521687     0.00300
C3769       C  0.84935151  0.89920738  0.70154381    -0.11400
C3770       C  0.84503957  0.87769860  0.68392260     0.02500
H3771       H  0.83563703  0.91149266  0.63349555     0.15500
H3772       H  0.85463732  0.89635404  0.72033432     0.15500
C3773       C  0.84173490  0.85015382  0.69264079     0.37100
C3774       C  0.83106864  0.94898110  0.66378457     0.37000
N3775       N  0.83866227  0.82807648  0.70009674    -0.43200
N3776       N  0.82428916  0.96646249  0.65809108    -0.43200
C3777       C  0.91393135  0.66770770  0.54307667     0.00400
C3778       C  0.92238419  0.64562310  0.54026300    -0.11500
C3779       C  0.94341507  0.64436581  0.55604247     0.02600
C3780       C  0.95570686  0.66501293  0.57525439     0.00300
C3781       C  0.94714395  0.68690549  0.57816669    -0.11400
C3782       C  0.92675623  0.68866137  0.56213747     0.02500
H3783       H  0.91284836  0.62961815  0.52561653     0.15500
H3784       H  0.95583505  0.70219541  0.59343094     0.15500
C3785       C  0.91825889  0.71137165  0.56651138     0.37100
C3786       C  0.95171088  0.62140750  0.55267891     0.37000
N3787       N  0.91152575  0.72959390  0.57010454    -0.43200
N3788       N  0.95869386  0.60321798  0.55014308    -0.43200
C3789       C  0.82322519  0.52933176  0.42922850     0.00400
C3790       C  0.83552381  0.53860249  0.45264183    -0.11500
C3791       C  0.83444543  0.56243833  0.46434933     0.02600
C3792       C  0.82130701  0.57759904  0.45223071     0.00300
C3793       C  0.80783683  0.56713630  0.42923081    -0.11400
C3794       C  0.80861035  0.54329689  0.41779797     0.02500
H3795       H  0.84705064  0.52801774  0.46125754     0.15500
H3796       H  0.79725639  0.57806527  0.41969960     0.15500
C3797       C  0.79575601  0.53447032  0.39353372     0.37100
C3798       C  0.84691807  0.57070346  0.48868111     0.37000
N3799       N  0.78561355  0.52727643  0.37410269    -0.43200
N3800       N  0.85695085  0.57730994  0.50819397    -0.43200
C3801       C  0.72052997  0.53816588  0.56481273     0.00400
C3802       C  0.75162550  0.54864839  0.56598517    -0.11500
C3803       C  0.77177918  0.57208755  0.55101588     0.02600
C3804       C  0.76086812  0.58551865  0.53422200     0.00300
C3805       C  0.72959196  0.57471800  0.53317728    -0.11400
C3806       C  0.70965457  0.55174751  0.54834258     0.02500
H3807       H  0.76024496  0.53929680  0.57946639     0.15500
H3808       H  0.72049022  0.58469790  0.52074036     0.15500
C3809       C  0.67821468  0.54396782  0.54785259     0.37100
C3810       C  0.80337685  0.58185835  0.55361424     0.37000
N3811       N  0.65318882  0.53831160  0.54742787    -0.43200
N3812       N  0.82865674  0.58957441  0.55608716    -0.43200
C3813       C  0.90427853  0.75955294  0.45946898     0.00400
C3814       C  0.91040797  0.74974290  0.43668194    -0.11500
C3815       C  0.93466206  0.76849206  0.42120969     0.02600
C3816       C  0.95301160  0.79786721  0.42810311     0.00300
C3817       C  0.94638166  0.80783854  0.45049835    -0.11400
C3818       C  0.92264914  0.78906521  0.46620239     0.02500
H3819       H  0.89704590  0.72711195  0.43143253     0.15500
H3820       H  0.95944925  0.83054696  0.45556306     0.15500
C3821       C  0.91710354  0.80098311  0.48891811     0.37100
C3822       C  0.94086784  0.75693963  0.39858438     0.37000
N3823       N  0.91279710  0.81076521  0.50704351    -0.43200
N3824       N  0.94606721  0.74758320  0.38059187    -0.43200
C3825       C  0.74298057  0.67946534  0.45335350     0.00400
C3826       C  0.71512055  0.65391005  0.45362460    -0.11500
C3827       C  0.69156371  0.65098128  0.43891742     0.02600
C3828       C  0.69450030  0.67441997  0.42418446     0.00300
C3829       C  0.72161347  0.70067843  0.42466607    -0.11400
C3830       C  0.74594226  0.70323518  0.43878916     0.02500
H3831       H  0.71185097  0.63525395  0.46462799     0.15500
H3832       H  0.72428474  0.71869014  0.41304896     0.15500
C3833       C  0.77394905  0.72977671  0.43704365     0.37100
C3834       C  0.66486873  0.62309083  0.43859291     0.37000
N3835       N  0.79659449  0.75087954  0.43562840    -0.43200
N3836       N  0.64349270  0.60076604  0.43823213    -0.43200
C3837       C  0.82882260  0.75969557  0.54559475     0.00400
C3838       C  0.82103615  0.75255957  0.57066840    -0.11500
C3839       C  0.82088046  0.77312630  0.58752336     0.02600
C3840       C  0.82934286  0.80175942  0.57950432     0.00300
C3841       C  0.83468883  0.80830155  0.55404607    -0.11400
C3842       C  0.83418495  0.78732728  0.53698734     0.02500
H3843       H  0.81639457  0.73116503  0.57732380     0.15500
H3844       H  0.84054152  0.83010161  0.54768992     0.15500
C3845       C  0.84079751  0.79510702  0.51112680     0.37100
C3846       C  0.81281111  0.76465749  0.61317757     0.37000
N3847       N  0.84587611  0.80135356  0.49036359    -0.43200
N3848       N  0.80635951  0.75808779  0.63375980    -0.43200
C3849       C  0.75521881  0.58516791  0.95448910     0.00400
C3850       C  0.72612735  0.58069068  0.95043079    -0.11500
C3851       C  0.70643311  0.55761245  0.93571890     0.02600
C3852       C  0.71599390  0.53877151  0.92382500     0.00300
C3853       C  0.74440708  0.54188640  0.92938606    -0.11400
C3854       C  0.76389157  0.56470152  0.94481798     0.02500
H3855       H  0.71898024  0.59579628  0.95832598     0.15500
H3856       H  0.75211937  0.52767920  0.92047750     0.15500
C3857       C  0.79339438  0.56794866  0.94897369     0.37100
C3858       C  0.67681345  0.55453157  0.93235071     0.37000
N3859       N  0.81705764  0.57058537  0.95236186    -0.43200
N3860       N  0.65318021  0.55231620  0.92970538    -0.43200
C3861       C  0.74798905  0.65579109  0.03610352     0.00400
C3862       C  0.75495385  0.66472169  0.06080780    -0.11500
C3863       C  0.73370575  0.66669725  0.07707396     0.02600
C3864       C  0.70440538  0.65866542  0.06910027     0.00300
C3865       C  0.69748825  0.65019289  0.04438476    -0.11400
C3866       C  0.71891508  0.64897395  0.02787483     0.02500
H3867       H  0.77733015  0.67105805  0.06721859     0.15500
H3868       H  0.67503500  0.64381115  0.03812571     0.15500
C3869       C  0.70996631  0.63977529  0.00273276     0.37100
C3870       C  0.74276662  0.67810159  0.10169987     0.37000
N3871       N  0.70256090  0.63254727  0.98260339    -0.43200
N3872       N  0.75018058  0.68769219  0.12130362    -0.43200
C3873       C  0.92432686  0.67797787  0.96506286     0.00400
C3874       C  0.94450416  0.70283656  0.95164917    -0.11500
C3875       C  0.96483748  0.70118478  0.93410638     0.02600
C3876       C  0.96536683  0.67448467  0.93024206     0.00300
C3877       C  0.94516999  0.64984248  0.94359790    -0.11400
C3878       C  0.92440303  0.65113302  0.96036219     0.02500
H3879       H  0.94454421  0.72350260  0.95500321     0.15500
H3880       H  0.94470918  0.62901236  0.93995270     0.15500
C3881       C  0.90201063  0.62396430  0.97097499     0.37100
C3882       C  0.98426031  0.72675903  0.91987982     0.37000
N3883       N  0.88399414  0.60186819  0.97885053    -0.43200
N3884       N  0.99988780  0.74728802  0.90848261    -0.43200
C3885       C  0.82826097  0.57680444  0.04841570     0.00400
C3886       C  0.80032570  0.55991850  0.06037256    -0.11500
C3887       C  0.79596950  0.53711601  0.07647647     0.02600
C3888       C  0.81987567  0.53100383  0.08074333     0.00300
C3889       C  0.84694750  0.54641147  0.06765277    -0.11400
C3890       C  0.85141747  0.56891756  0.05155879     0.02500
H3891       H  0.78219413  0.56523981  0.05796706     0.15500
H3892       H  0.86517726  0.54134413  0.07069843     0.15500
C3893       C  0.88057762  0.58376504  0.03945226     0.37100
C3894       C  0.76731296  0.52132839  0.08907806     0.37000
N3895       N  0.90415294  0.59540634  0.03010414    -0.43200
N3896       N  0.74409625  0.00884422  0.09888520    -0.43200
C3897       C  0.93392696  0.75011381  0.05172915     0.00400
C3898       C  0.93543279  0.74674521  0.07733563    -0.11500
C3899       C  0.95899865  0.76720286  0.09102828     0.02600
C3900       C  0.98142428  0.79259161  0.07941866     0.00300
C3901       C  0.98071906  0.79575250  0.05359948    -0.11400
C3902       C  0.95747598  0.77427102  0.03961368     0.02500
H3903       H  0.91819642  0.72763859  0.08671233     0.15500
H3904       H  0.99807882  0.81493357  0.04446070     0.15500
C3905       C  0.95938141  0.77607592  0.01289531     0.37100
C3906       C  0.95961610  0.76173455  0.11721784     0.37000
N3907       N  0.96097998  0.77689699  0.99143742    -0.43200
N3908       N  0.96025708  0.75753492  0.13817576    -0.43200
C3909       C  0.84681199  0.76094226  0.96062739     0.00400
C3910       C  0.82263520  0.75679221  0.94574859    -0.11500
C3911       C  0.82288753  0.77957214  0.93197889     0.02600
C3912       C  0.84766325  0.80760360  0.93291940     0.00300
C3913       C  0.87164694  0.81209789  0.94820831    -0.11400
C3914       C  0.87130994  0.78918410  0.96216932     0.02500
H3915       H  0.80359229  0.73526455  0.94425219     0.15500
H3916       H  0.89096384  0.83352212  0.94886755     0.15500
C3917       C  0.89569335  0.79559913  0.97857292     0.37100
C3918       C  0.79832798  0.77294802  0.91565494     0.37000
N3919       N  0.91517055  0.80117063  0.99194041    -0.43200
N3920       N  0.77860602  0.76746354  0.90257094    -0.43200
loop_ 
_geom_bond_atom_site_label_1 
_geom_bond_atom_site_label_2 
_geom_bond_distance 
_geom_bond_site_symmetry_2 
_ccdc_geom_bond_type 
O1           Ni7   1.912       .  S
O1           C22   1.264       .  A
O2          Ni25   1.938   1_556  S
O2           C11   1.278       .  A
O3           Ni7   1.895       .  S
O3          Ni25   1.913       .  S
O3          Ni19   1.919       .  S
O3           H26   0.967       .  S
C4           O21   1.279       .  A
C4           O13   1.281       .  A
C4          C909   1.487       .  S
O5          Ni24   1.917       .  S
O5           C11   1.269       .  A
O6          Ni24   1.897       .  S
O6            C8   1.265   1_556  A
Ni7          O10   1.904       .  S
Ni7          O12   1.889       .  S
C8           O18   1.281       .  A
C8          C921   1.497       .  S
O9          Ni25   1.948       .  S
O9           C15   1.286       .  A
O10          C15   1.275       .  A
C11         C969   1.491       .  S
O12          C14   1.264   1_554  A
O13         Ni24   1.930       .  S
C14          O20   1.275       .  A
C14         C933   1.481       .  S
C15         C957   1.481       .  S
H16          O17   0.966       .  S
O17         Ni25   1.933   1_556  S
O17         Ni19   1.898   1_556  S
O17         Ni24   1.888       .  S
O18         Ni19   1.960       .  S
Ni19         O23   1.921       .  S
Ni19         O21   1.934   1_554  S
O20         Ni25   1.944   1_556  S
C22          O23   1.271       .  A
C22         C945   1.489       .  S
O27         Ni33   1.907       .  S
O27          C48   1.266       .  A
O28         Ni51   1.945       .  S
O28          C37   1.278       .  A
O29         Ni33   1.886       .  S
O29         Ni51   1.905       .  S
O29         Ni45   1.927       .  S
O29          H52   0.966       .  S
C30          O47   1.285       .  A
C30          O39   1.280       .  A
C30         C852   1.486       .  S
O31         Ni50   1.909       .  S
O31          C37   1.266       .  A
O32         Ni50   1.893       .  S
O32          C34   1.265       .  A
Ni33         O36   1.909       .  S
Ni33         O38   1.902       .  S
C34          O44   1.277       .  A
C34         C864   1.502       .  S
O35         Ni51   1.944       .  S
O35          C41   1.283       .  A
O36          C41   1.277       .  A
C37         C885   1.503       .  S
O38          C40   1.267       .  A
O39         Ni50   1.911       .  S
C40          O46   1.283       .  A
C40         C873   1.497       .  S
C41         C897   1.476       .  S
H42          O43   0.966       .  S
O43         Ni51   1.924       .  S
O43         Ni45   1.901       .  S
O43         Ni50   1.882       .  S
O44         Ni45   1.955       .  S
Ni45         O49   1.931       .  S
Ni45         O47   1.933       .  S
O46         Ni51   1.967       .  S
C48          O49   1.274       .  A
C48         C837   1.479       .  S
N53          H85   1.044       .  S
N53          C57   1.351       .  A
N53        C1038   1.348   1_545  A
N54          C61   1.345       .  A
N54          C62   1.345       .  A
N55          H86   1.044       .  S
N55          C59   1.348       .  A
N55        C1040   1.350   1_545  A
N56          C63   1.344       .  A
N56          C64   1.345       .  A
C57          C65   1.388       .  A
C57          C73   1.414       .  A
C58        N1033   1.348       .  A
C58          C74   1.413       .  A
C58          C66   1.388       .  A
C59          C67   1.387       .  A
C59          C76   1.411       .  A
C60        N1035   1.350       .  A
C60          C75   1.412       .  A
C60          C68   1.387       .  A
C61          C73   1.408       .  A
C61          C69   1.386       .  A
C62          C76   1.408       .  A
C62          C70   1.387       .  A
C63          C71   1.387       .  A
C63          C74   1.407       .  A
C64          C72   1.387       .  A
C64          C75   1.409       .  A
C65        C1046   1.378   1_545  A
C65          H77   1.082       .  S
C66        C1045   1.378       .  A
C66          H78   1.082       .  S
C67        C1048   1.379   1_545  A
C67          H79   1.082       .  S
C68        C1047   1.379       .  A
C68          H80   1.082       .  S
C69          C70   1.381       .  A
C69          H81   1.082       .  S
C70          H82   1.082       .  S
C71          C72   1.380       .  A
C71          H83   1.082       .  S
C72          H84   1.082       .  S
C73         C813   1.495       .  S
C74         C828   1.489       .  S
C75         C804   1.496       .  S
C76         C789   1.489       .  S
N87         H119   1.040       .  S
N87          C92   1.355       .  A
N87          C91   1.355       .  A
N88          C95   1.350       .  A
N88          C96   1.352       .  A
N89         H120   1.033       .  S
N89          C94   1.354       .  A
N89          C93   1.355       .  A
N90          C97   1.352       .  A
N90          C98   1.352       .  A
C91          C99   1.388       .  A
C91         C107   1.422       .  A
C92         C108   1.414       .  A
C92         C100   1.385       .  A
C93         C101   1.388       .  A
C93         C110   1.423       .  A
C94         C109   1.418       .  A
C94         C102   1.387       .  A
C95         C107   1.418       .  A
C95         C103   1.387       .  A
C96         C110   1.415       .  A
C96         C104   1.385       .  A
C97         C105   1.386       .  A
C97         C108   1.414       .  A
C98         C106   1.386       .  A
C98         C109   1.416       .  A
C99         C100   1.375       .  A
C99         H111   1.082       .  S
C100        H112   1.081       .  S
C101        C102   1.371       .  A
C101        H113   1.082       .  S
C102        H114   1.082       .  S
C103        C104   1.370       .  A
C103        H115   1.082       .  S
C104        H116   1.079       .  S
C105        C106   1.371       .  A
C105        H117   1.083       .  S
C106        H118   1.081       .  S
C107        C768   1.503       .  S
C108        C780   1.490       .  S
C109        C741   1.488       .  S
C110        C753   1.499       .  S
N121        H153   1.041       .  S
N121        C126   1.356       .  A
N121       C2085   1.352   1_455  A
N122        C129   1.352       .  A
N122        C130   1.353       .  A
N123        H154   1.040       .  S
N123        C128   1.351       .  A
N123       C2087   1.353   1_455  A
N124        C131   1.353       .  A
N124        C132   1.350       .  A
C125       N2081   1.352       .  A
C125        C133   1.385       .  A
C125        C141   1.413       .  A
C126        C142   1.423       .  A
C126        C134   1.389       .  A
C127       N2083   1.353       .  A
C127        C135   1.388       .  A
C127        C144   1.414       .  A
C128        C143   1.411       .  A
C128        C136   1.387       .  A
C129        C141   1.415       .  A
C129        C137   1.387       .  A
C130        C144   1.417       .  A
C130        C138   1.386       .  A
C131        C139   1.388       .  A
C131        C142   1.419       .  A
C132        C140   1.384       .  A
C132        C143   1.411       .  A
C133       C2094   1.378       .  A
C133        H145   1.082       .  S
C134       C2093   1.378       .  A
C134        H146   1.082       .  S
C135       C2096   1.377       .  A
C135        H147   1.082       .  S
C136       C2095   1.377   1_455  A
C136        H148   1.082       .  S
C137        C138   1.379       .  A
C137        H149   1.082       .  S
C138        H150   1.083       .  S
C139        C140   1.376       .  A
C139        H151   1.082       .  S
C140        H152   1.080       .  S
C141        C693   1.491       .  S
C142        C708   1.515       .  S
C143        C717   1.487       .  S
C144        C729   1.494       .  S
C155        C840   1.477       .  S
C155        C160   1.396       .  A
C155       C2116   1.409       .  A
C156        C681   1.484       .  S
C156        C157   1.404       .  A
C156       C2115   1.409   1_455  A
C157        C158   1.404       .  A
C157        H162   1.084       .  S
C158        C777   1.494       .  S
C158       C2119   1.420   1_455  A
C159        C816   1.485       .  S
C159        C160   1.401       .  A
C159       C2118   1.420       .  A
C160        H161   1.085       .  S
C163        C861   1.486       .  S
C163        C168   1.407       .  A
C163       C1144   1.424   1_545  A
C164        C672   1.488       .  S
C164        C165   1.402       .  A
C164       C1143   1.424       .  A
C165        C166   1.395       .  A
C165        H170   1.085       .  S
C166        C720   1.484       .  S
C166       C1147   1.416       .  A
C167        C765   1.491       .  S
C167        C168   1.401       .  A
C167       C1146   1.416   1_545  A
C168        H169   1.085       .  S
C171        C972   1.491       .  S
C171        C172   1.422       .  A
C171        C176   1.409       .  A
C172        C657   1.496       .  S
C172        C173   1.400       .  A
C173        C174   1.402       .  A
C173        H178   1.085       .  S
C174        C801   1.488       .  S
C174        C175   1.417       .  A
C175        C696   1.494       .  S
C175        C176   1.405       .  A
C176        H177   1.084       .  S
C179        C645   1.481       .  S
C179        C180   1.410       .  A
C179        C184   1.392       .  A
C180        C900   1.486       .  S
C180        C181   1.411       .  A
C181        C182   1.407       .  A
C181        H186   1.084       .  S
C182        C732   1.495       .  S
C182        C183   1.422       .  A
C183        C825   1.490       .  S
C183        C184   1.401       .  A
C184        H185   1.085       .  S
C187        C912   1.499       .  S
C187        C192   1.409       .  A
C187       C1168   1.419   1_545  A
C188        C633   1.490       .  S
C188        C189   1.409       .  A
C188       C1167   1.419       .  A
C189        C190   1.404       .  A
C189        H194   1.085       .  S
C190        C705   1.493       .  S
C190       C1171   1.425       .  A
C191        C756   1.505       .  S
C191        C192   1.406       .  A
C191       C1170   1.425   1_545  A
C192        H193   1.084       .  S
C195        C624   1.484       .  S
C195        C200   1.404       .  A
C195       C2156   1.414   1_455  A
C196        C936   1.480       .  S
C196        C197   1.402       .  A
C196       C2155   1.414       .  A
C197        C198   1.398       .  A
C197        H202   1.085       .  S
C198        C792   1.488       .  S
C198       C2159   1.415       .  A
C199        C744   1.487       .  S
C199        C200   1.403       .  A
C199       C2158   1.415   1_455  A
C200        H201   1.085       .  S
O203       Ni209   1.920       .  S
O203        C224   1.270       .  A
O204       Ni227   1.932       .  S
O204        C213   1.276       .  A
O205       Ni209   1.883       .  S
O205       Ni227   1.899       .  S
O205       Ni221   1.912       .  S
O205        H228   0.966       .  S
C206        O223   1.279       .  A
C206        O215   1.278       .  A
C206        C684   1.474       .  S
O207       Ni226   1.908       .  S
O207        C213   1.264       .  A
O208       Ni226   1.898       .  S
O208        C210   1.264       .  A
Ni209       O212   1.910       .  S
Ni209       O214   1.893       .  S
C210        O220   1.276       .  A
C210        C585   1.487       .  S
O211       Ni227   1.934       .  S
O211        C217   1.285       .  A
O212        C217   1.279       .  A
C213        C648   1.487       .  S
O214        C216   1.266       .  A
O215       Ni226   1.919       .  S
C216        O222   1.282       .  A
C216        C669   1.501       .  S
C217        C609   1.481       .  S
H218        O219   0.967       .  S
O219       Ni227   1.930       .  S
O219       Ni221   1.899       .  S
O219       Ni226   1.903       .  S
O220       Ni221   1.947       .  S
Ni221       O225   1.916       .  S
Ni221       O223   1.928       .  S
O222       Ni227   1.957       .  S
C224        O225   1.270       .  A
C224        C597   1.485       .  S
O229       Ni235   1.916       .  S
O229        C250   1.268       .  A
O230       Ni253   1.917       .  S
O230        C239   1.272       .  A
O231       Ni235   1.885       .  S
O231       Ni253   1.895   1_554  S
O231       Ni247   1.921   1_554  S
O231        H254   0.964       .  S
C232        O249   1.285       .  A
C232        O241   1.278       .  A
C232        C621   1.486       .  S
O233       Ni252   1.943       .  S
O233        C239   1.275       .  A
O234       Ni252   1.897       .  S
O234        C236   1.268   1_556  A
Ni235       O238   1.919       .  S
Ni235       O240   1.910       .  S
C236        O246   1.278       .  A
C236        C561   1.491       .  S
O237       Ni253   1.927   1_554  S
O237        C243   1.276       .  A
O238        C243   1.278       .  A
C239        C636   1.497       .  S
O240        C242   1.268   1_554  A
O241       Ni252   1.921       .  S
C242        O248   1.276       .  A
C242        C660   1.491       .  S
C243        C573   1.468       .  S
H244        O245   0.958       .  S
O245       Ni253   1.903       .  S
O245       Ni247   1.918       .  S
O245       Ni252   1.890       .  S
O246       Ni247   1.954   1_554  S
Ni247       O251   1.949   1_556  S
Ni247       O249   1.936       .  S
O248       Ni253   1.941       .  S
C250        O251   1.283       .  A
C250        C549   1.502       .  S
N255        H287   1.036       .  S
N255        C259   1.361       .  A
N255       C2220   1.359       .  A
N256        C263   1.348       .  A
N256        C264   1.351       .  A
N257        H288   1.041       .  S
N257        C261   1.347       .  A
N257       C2222   1.347       .  A
N258        C265   1.353       .  A
N258        C266   1.356       .  A
C259        C267   1.384       .  A
C259        C275   1.429       .  A
C260       N2215   1.359   1_455  A
C260        C276   1.434       .  A
C260        C268   1.391       .  A
C261        C269   1.385       .  A
C261        C278   1.402       .  A
C262       N2217   1.347   1_455  A
C262        C277   1.406       .  A
C262        C270   1.387       .  A
C263        C275   1.413       .  A
C263        C271   1.388       .  A
C264        C278   1.407       .  A
C264        C272   1.382       .  A
C265        C273   1.392       .  A
C265        C276   1.427       .  A
C266        C274   1.381       .  A
C266        C277   1.416       .  A
C267       C2228   1.374       .  A
C267        H279   1.082       .  S
C268       C2227   1.374   1_455  A
C268        H280   1.079       .  S
C269       C2230   1.374       .  A
C269        H281   1.082       .  S
C270       C2229   1.374   1_455  A
C270        H282   1.083       .  S
C271        C272   1.372       .  A
C271        H283   1.082       .  S
C272        H284   1.079       .  S
C273        C274   1.361       .  A
C273        H285   1.077       .  S
C274        H286   1.080       .  S
C275        C516   1.505       .  S
C276        C537   1.505       .  S
C277        C528   1.497       .  S
C278        C501   1.479       .  S
N289        H321   1.041       .  S
N289        C294   1.352       .  A
N289        C293   1.352       .  A
N290        C297   1.353       .  A
N290        C298   1.349       .  A
N291        H322   1.038       .  S
N291        C296   1.356       .  A
N291        C295   1.354       .  A
N292        C299   1.347       .  A
N292        C300   1.348       .  A
C293        C301   1.386       .  A
C293        C309   1.413       .  A
C294        C310   1.408       .  A
C294        C302   1.386       .  A
C295        C303   1.388       .  A
C295        C312   1.419       .  A
C296        C311   1.413       .  A
C296        C304   1.385       .  A
C297        C309   1.414       .  A
C297        C305   1.383       .  A
C298        C312   1.422       .  A
C298        C306   1.389       .  A
C299        C307   1.384       .  A
C299        C310   1.407       .  A
C300        C308   1.386       .  A
C300        C311   1.409       .  A
C301        C302   1.364       .  A
C301        H313   1.080       .  S
C302        H314   1.080       .  S
C303        C304   1.371       .  A
C303        H315   1.082       .  S
C304        H316   1.082       .  S
C305        C306   1.363       .  A
C305        H317   1.079       .  S
C306        H318   1.078       .  S
C307        C308   1.372       .  A
C307        H319   1.082       .  S
C308        H320   1.082       .  S
C309        C477   1.499       .  S
C310        C456   1.478       .  S
C311        C465   1.486       .  S
C312        C489   1.493       .  S
C323        C612   1.484       .  S
C323        C328   1.402       .  A
C323       C1304   1.410       .  A
C324        C849   1.472       .  S
C324        C325   1.397       .  A
C324       C1303   1.410   1_545  A
C325        C326   1.394       .  A
C325        H330   1.086       .  S
C326        C504   1.485       .  S
C326       C1307   1.422   1_545  A
C327        C480   1.490       .  S
C327        C328   1.404       .  A
C327       C1306   1.422       .  A
C328        H329   1.084       .  S
N331        H363   1.039       .  S
N331        C336   1.365       .  A
N331       C1315   1.361       .  A
N332        C339   1.358       .  A
N332        C340   1.360       .  A
N333        H364   1.042       .  S
N333        C338   1.354       .  A
N333       C1317   1.353       .  A
N334        C341   1.349       .  A
N334        C342   1.351       .  A
C335       N1311   1.361   1_545  A
C335        C343   1.388       .  A
C335        C351   1.435       .  A
C336        C352   1.436       .  A
C336        C344   1.387       .  A
C337       N1313   1.353   1_545  A
C337        C345   1.387       .  A
C337        C354   1.411       .  A
C338        C353   1.416       .  A
C338        C346   1.386       .  A
C339        C351   1.429       .  A
C339        C347   1.389       .  A
C340        C354   1.424       .  A
C340        C348   1.383       .  A
C341        C349   1.388       .  A
C341        C352   1.416       .  A
C342        C350   1.386       .  A
C342        C353   1.414       .  A
C343       C1324   1.376   1_545  A
C343        H355   1.079       .  S
C344       C1323   1.376       .  A
C344        H356   1.080       .  S
C345       C1326   1.371   1_545  A
C345        H357   1.079       .  S
C346       C1325   1.371       .  A
C346        H358   1.080       .  S
C347        C348   1.377       .  A
C347        H359   1.081       .  S
C348        H360   1.080       .  S
C349        C350   1.379       .  A
C349        H361   1.082       .  S
C350        H362   1.082       .  S
C351        C429   1.517       .  S
C352        C408   1.523       .  S
C353        C417   1.504       .  S
C354        C444   1.506       .  S
C365        C576   1.473       .  S
C365        C370   1.395       .  A
C365       C1346   1.406       .  A
C366        C948   1.477       .  S
C366        C367   1.408       .  A
C366       C1345   1.406   1_545  A
C367        C368   1.404       .  A
C367        H372   1.085       .  S
C368        C513   1.499       .  S
C368       C1349   1.423   1_545  A
C369        C492   1.474       .  S
C369        C370   1.393       .  A
C369       C1348   1.423       .  A
C370        H371   1.086       .  S
C373        C888   1.495       .  S
C373        C374   1.418       .  A
C373        C378   1.418       .  A
C374        C588   1.494       .  S
C374        C375   1.400       .  A
C375        C376   1.400       .  A
C375        H380   1.086       .  S
C376        C525   1.474       .  S
C376        C377   1.423       .  A
C377        C432   1.522       .  S
C377        C378   1.413       .  A
C378        H379   1.084       .  S
C381        C924   1.494       .  S
C381        C382   1.416       .  A
C381        C386   1.409       .  A
C382        C552   1.492       .  S
C382        C383   1.403       .  A
C383        C384   1.408       .  A
C383        H388   1.082       .  S
C384        C540   1.508       .  S
C384        C385   1.433       .  A
C385        C441   1.508       .  S
C385        C386   1.410       .  A
C386        H387   1.084       .  S
C389        C876   1.498       .  S
C389        C394   1.397       .  A
C389       C2350   1.413       .  A
C390        C600   1.477       .  S
C390        C391   1.411       .  A
C390       C2349   1.413   1_455  A
C391        C392   1.405       .  A
C391        H396   1.084       .  S
C392        C405   1.513       .  S
C392       C2353   1.425   1_455  A
C393        C453   1.488       .  S
C393        C394   1.410       .  A
C393       C2352   1.425       .  A
C394        H395   1.084       .  S
C397        C564   1.488       .  S
C397        C402   1.412       .  A
C397       C2358   1.416       .  A
C398        C960   1.487       .  S
C398        C399   1.400       .  A
C398       C2357   1.416       .  A
C399        C400   1.395       .  A
C399        H404   1.086       .  S
C400        C468   1.486       .  S
C400       C2361   1.418       .  A
C401        C420   1.495       .  S
C401        C402   1.408       .  A
C401       C2360   1.418       .  A
C402        H403   1.084       .  S
C405        C406   1.407       .  A
C405        C410   1.416       .  A
C406        C407   1.409       .  A
C406       H2371   1.085       .  S
C407        C408   1.422       .  A
C407        C414   1.443       .  S
C408        C409   1.408       .  A
C409        C410   1.409       .  A
C409        H412   1.084       .  S
C410        C413   1.443       .  S
H411       C2366   1.085       .  S
C413        N415   1.157       .  T
C414       N2376   1.157       .  T
N416       C2374   1.157       .  T
C417        C418   1.406       .  A
C417        C422   1.418       .  A
C418        C419   1.400       .  A
C418        H423   1.083       .  S
C419        C420   1.413       .  A
C419       C2386   1.443       .  S
C420        C421   1.405       .  A
C421        C422   1.402       .  A
C421        H424   1.085       .  S
C422        C425   1.445       .  S
C425        N427   1.157       .  T
C426       C2379   1.443       .  S
C426        N428   1.157       .  T
C429        C430   1.408       .  A
C429        C434   1.413       .  A
C430        C431   1.412       .  A
C430        H435   1.084       .  S
C431        C432   1.418       .  A
C431        C438   1.442       .  S
C432        C433   1.410       .  A
C433        C434   1.408       .  A
C433        H436   1.074       .  S
C434        C437   1.445       .  S
C437        N439   1.157       .  T
C438        N440   1.157       .  T
C441        C442   1.408       .  A
C441        C446   1.416       .  A
C442        C443   1.405       .  A
C442        H447   1.084       .  S
C443        C444   1.414       .  A
C443        C450   1.443       .  S
C444        C445   1.408       .  A
C445        C446   1.408       .  A
C445        H448   1.084       .  S
C446        C449   1.444       .  S
C449        N451   1.157       .  T
C450        N452   1.157       .  T
C453        C454   1.407       .  A
C453        C458   1.417       .  A
C454        C455   1.396       .  A
C454       H2419   1.084       .  S
C455        C456   1.407       .  A
C455        C462   1.444       .  S
C456        C457   1.398       .  A
C457        C458   1.393       .  A
C457        H460   1.085       .  S
C458        C461   1.445       .  S
H459       C2414   1.084   1_455  S
C461        N463   1.157       .  T
C462       N2424   1.157       .  T
N464       C2422   1.157   1_455  T
C465        C466   1.404       .  A
C465        C470   1.407       .  A
C466        C467   1.401       .  A
C466        H471   1.085       .  S
C467        C468   1.410       .  A
C467        C474   1.443       .  S
C468        C469   1.406       .  A
C469        C470   1.397       .  A
C469        H472   1.084       .  S
C470        C473   1.443       .  S
C473        N475   1.157       .  T
C474        N476   1.157       .  T
C477        C478   1.403       .  A
C477        C482   1.416       .  A
C478        C479   1.394       .  A
C478        H483   1.079       .  S
C479        C480   1.410       .  A
C479       C1466   1.443       .  S
C480        C481   1.405       .  A
C481        C482   1.397       .  A
C481        H484   1.084       .  S
C482        C485   1.445       .  S
C485        N487   1.157       .  T
C486       C1459   1.443       .  S
C486        N488   1.157   1_565  T
C489        C490   1.406       .  A
C489        C494   1.413       .  A
C490        C491   1.392       .  A
C490        H495   1.084       .  S
C491        C492   1.405       .  A
C491        C498   1.444       .  S
C492        C493   1.403       .  A
C493        C494   1.400       .  A
C493        H496   1.084       .  S
C494        C497   1.445       .  S
C497        N499   1.157       .  T
C498        N500   1.157       .  T
C501        C502   1.404       .  A
C501        C506   1.405       .  A
C502        C503   1.399       .  A
C502        H507   1.085       .  S
C503        C504   1.410       .  A
C503       C1490   1.443       .  S
C504        C505   1.408       .  A
C505        C506   1.397       .  A
C505        H508   1.085       .  S
C506        C509   1.444       .  S
C509        N511   1.157       .  T
C510       C1483   1.443       .  S
C510        N512   1.157       .  T
C513        C514   1.403       .  A
C513        C518   1.413       .  A
C514        C515   1.399       .  A
C514        H519   1.072       .  S
C515        C516   1.410       .  A
C515        C522   1.444       .  S
C516        C517   1.410       .  A
C517        C518   1.406       .  A
C517        H520   1.085       .  S
C518        C521   1.443       .  S
C521       N1503   1.157       .  T
C522        N524   1.157       .  T
N523       C1501   1.157       .  T
C525        C526   1.403       .  A
C525        C530   1.404       .  A
C526        C527   1.402       .  A
C526        H531   1.084       .  S
C527        C528   1.414       .  A
C527        C534   1.445       .  S
C528        C529   1.408       .  A
C529        C530   1.391       .  A
C529        H532   1.084       .  S
C530        C533   1.445       .  S
C533        N535   1.157       .  T
C534        N536   1.157       .  T
C537        C538   1.407       .  A
C537        C542   1.414       .  A
C538        C539   1.395       .  A
C538        H543   1.084       .  S
C539        C540   1.407       .  A
C539        C546   1.443       .  S
C540        C541   1.413       .  A
C541        C542   1.404       .  A
C541        H544   1.082       .  S
C542        C545   1.445       .  S
C545        N547   1.157       .  T
C546        N548   1.158       .  T
C549        C550   1.405       .  A
C549        C554   1.427       .  A
C550        C551   1.408       .  A
C550        H555   1.084       .  S
C551        C552   1.416       .  A
C551        C558   1.444       .  S
C552        C553   1.397       .  A
C553        C554   1.405       .  A
C553        H556   1.085       .  S
C554        C557   1.445       .  S
C557        N559   1.157       .  T
C558        N560   1.157       .  T
C561        C562   1.410       .  A
C561        C566   1.416       .  A
C562        C563   1.412       .  A
C562        H567   1.084       .  S
C563        C564   1.413       .  A
C563        C570   1.443       .  S
C564        C565   1.401       .  A
C565        C566   1.395       .  A
C565        H568   1.086       .  S
C566        C569   1.445       .  S
C569        N571   1.157       .  T
C570        N572   1.157       .  T
C573        C574   1.401       .  A
C573        C578   1.409       .  A
C574        C575   1.401       .  A
C574        H579   1.085       .  S
C575        C576   1.411       .  A
C575        C582   1.444       .  S
C576        C577   1.400       .  A
C577        C578   1.397       .  A
C577        H580   1.084       .  S
C578        C581   1.444       .  S
C581        N583   1.157       .  T
C582        N584   1.157       .  T
C585        C586   1.406       .  A
C585        C590   1.410       .  A
C586        C587   1.403       .  A
C586        H591   1.085       .  S
C587        C588   1.414       .  A
C587        C594   1.442       .  S
C588        C589   1.408       .  A
C589        C590   1.405       .  A
C589        H592   1.085       .  S
C590        C593   1.442       .  S
C593        N595   1.157       .  T
C594        N596   1.157       .  T
C597        C598   1.406       .  A
C597        C602   1.415       .  A
C598        C599   1.396       .  A
C598        H603   1.085       .  S
C599        C600   1.409       .  A
C599        C606   1.445       .  S
C600        C601   1.403       .  A
C601        C602   1.405       .  A
C601        H604   1.085       .  S
C602        C605   1.444       .  S
C605        N607   1.157       .  T
C606       N2568   1.157       .  T
N608       C2566   1.157       .  T
C609        C610   1.401       .  A
C609        C614   1.418       .  A
C610        C611   1.400       .  A
C610        H615   1.085       .  S
C611        C612   1.415       .  A
C611        C618   1.444       .  S
C612        C613   1.400       .  A
C613        C614   1.399       .  A
C613        H616   1.083       .  S
C614        C617   1.446       .  S
C617        N619   1.157       .  T
C618        N620   1.157       .  T
C621        C622   1.408       .  A
C621        C626   1.417       .  A
C622        C623   1.412       .  A
C622        H627   1.084       .  S
C623        C624   1.412       .  A
C623       C2590   1.442       .  S
C624        C625   1.398       .  A
C625        C626   1.392       .  A
C625        H628   1.086       .  S
C626        C629   1.446       .  S
C629        N631   1.157       .  T
C630       C2583   1.442       .  S
C630        N632   1.157       .  T
C633        C634   1.406       .  A
C633        C638   1.408       .  A
C634        C635   1.408       .  A
C634        H639   1.085       .  S
C635        C636   1.416       .  A
C635        C642   1.444       .  S
C636        C637   1.410       .  A
C637        C638   1.404       .  A
C637        H640   1.085       .  S
C638        C641   1.444       .  S
C641        N643   1.157       .  T
C642        N644   1.157       .  T
C645        C646   1.394       .  A
C645        C650   1.416       .  A
C646        C647   1.396       .  A
C646        H651   1.085       .  S
C647        C648   1.424       .  A
C647        C654   1.445       .  S
C648        C649   1.403       .  A
C649        C650   1.402       .  A
C649        H652   1.085       .  S
C650        C653   1.445       .  S
C653        N655   1.157       .  T
C654        N656   1.157       .  T
C657        C658   1.409       .  A
C657        C662   1.411       .  A
C658        C659   1.405       .  A
C658        H663   1.085       .  S
C659        C660   1.412       .  A
C659        C666   1.444       .  S
C660        C661   1.409       .  A
C661        C662   1.404       .  A
C661        H664   1.085       .  S
C662        C665   1.443       .  S
C665        N667   1.157       .  T
C666        N668   1.157       .  T
C669        C670   1.410       .  A
C669        C674   1.417       .  A
C670        C671   1.401       .  A
C670        H675   1.085       .  S
C671        C672   1.411       .  A
C671        C678   1.445       .  S
C672        C673   1.406       .  A
C673        C674   1.411       .  A
C673        H676   1.085       .  S
C674        C677   1.443       .  S
C677        N679   1.157       .  T
C678        N680   1.157       .  T
C681        C682   1.404       .  A
C681        C686   1.411       .  A
C682        C683   1.401       .  A
C682        H687   1.084       .  S
C683        C684   1.409       .  A
C683        C690   1.443       .  S
C684        C685   1.403       .  A
C685        C686   1.400       .  A
C685        H688   1.085       .  S
C686        C689   1.445       .  S
C689        N691   1.157       .  T
C690        N692   1.157       .  T
C693        C694   1.402       .  A
C693        C698   1.411       .  A
C694        C695   1.404       .  A
C694        H699   1.084       .  S
C695        C696   1.416       .  A
C695        C702   1.445       .  S
C696        C697   1.405       .  A
C697        C698   1.402       .  A
C697        H700   1.085       .  S
C698        C701   1.444       .  S
C701        N703   1.157       .  T
C702        N704   1.157       .  T
C705        C706   1.403       .  A
C705        C710   1.409       .  A
C706        C707   1.410       .  A
C706        H711   1.084       .  S
C707        C708   1.422       .  A
C707        C714   1.445       .  S
C708        C709   1.409       .  A
C709        C710   1.397       .  A
C709        H712   1.083       .  S
C710       C1693   1.446       .  S
C713       C1690   1.446       .  S
C713        N715   1.157       .  T
C714        N716   1.158       .  T
C717        C718   1.405       .  A
C717        C722   1.410       .  A
C718        C719   1.401       .  A
C718        H723   1.085       .  S
C719        C720   1.412       .  A
C719       C1706   1.445       .  S
C720        C721   1.402       .  A
C721        C722   1.397       .  A
C721        H724   1.085       .  S
C722        C725   1.443       .  S
C725        N727   1.157       .  T
C726       C1699   1.445   1_545  S
C726        N728   1.157       .  T
C729        C730   1.404       .  A
C729        C734   1.410       .  A
C730        C731   1.403       .  A
C730        H735   1.084       .  S
C731        C732   1.413       .  A
C731        C738   1.444       .  S
C732        C733   1.407       .  A
C733        C734   1.404       .  A
C733        H736   1.084       .  S
C734        C737   1.443       .  S
C737        N739   1.157       .  T
C738        N740   1.157       .  T
C741        C742   1.401       .  A
C741        C746   1.412       .  A
C742        C743   1.397       .  A
C742        H747   1.085       .  S
C743        C744   1.412       .  A
C743        C750   1.444       .  S
C744        C745   1.405       .  A
C745        C746   1.401       .  A
C745       H2708   1.085   1_455  S
C746       C2709   1.444       .  S
H748       C2705   1.085       .  S
C749       C2706   1.444       .  S
C749        N751   1.157       .  T
C750        N752   1.157       .  T
C753        C754   1.407       .  A
C753        C758   1.410       .  A
C754        C755   1.409       .  A
C754        H759   1.084       .  S
C755        C756   1.420       .  A
C755        C762   1.444       .  S
C756        C757   1.401       .  A
C757        C758   1.391       .  A
C757        H760   1.070       .  S
C758        C761   1.447       .  S
C761        N763   1.157       .  T
C762        N764   1.157       .  T
C765        C766   1.405       .  A
C765        C770   1.409       .  A
C766        C767   1.402       .  A
C766        H771   1.084       .  S
C767        C768   1.415       .  A
C767        C774   1.444       .  S
C768        C769   1.407       .  A
C769        C770   1.395       .  A
C769        H772   1.082       .  S
C770        C773   1.444       .  S
C773       N1755   1.157   1_545  T
C774        N776   1.157       .  T
N775       C1753   1.157       .  T
C777        C778   1.407       .  A
C777        C782   1.415       .  A
C778        C779   1.401       .  A
C778        H783   1.084   1_455  S
C779        C780   1.411       .  A
C779        C786   1.443       .  S
C780        C781   1.402       .  A
C781        C782   1.398       .  A
C781        H784   1.085       .  S
C782        C785   1.445       .  S
C785        N787   1.157       .  T
C786        N788   1.157   1_455  T
C789        C790   1.405       .  A
C789        C794   1.413       .  A
C790        C791   1.397       .  A
C790        H795   1.085       .  S
C791        C792   1.414       .  A
C791        C798   1.445       .  S
C792        C793   1.403       .  A
C793        C794   1.396       .  A
C793       H2756   1.084       .  S
C794        C797   1.443       .  S
H796       C2753   1.084       .  S
C797       N2759   1.157       .  T
C798        N800   1.157       .  T
N799       C2757   1.157       .  T
C801        C802   1.404       .  A
C801        C806   1.412       .  A
C802        C803   1.395       .  A
C802        H807   1.085       .  S
C803        C804   1.415       .  A
C803        C810   1.445       .  S
C804        C805   1.408       .  A
C805        C806   1.399       .  A
C805        H808   1.084       .  S
C806        C809   1.443       .  S
C809        N811   1.157       .  T
C810        N812   1.157       .  T
C813        C814   1.408       .  A
C813        C818   1.413       .  A
C814        C815   1.398       .  A
C814        H819   1.082       .  S
C815        C816   1.410       .  A
C815       C2782   1.444       .  S
C816        C817   1.403       .  A
C817        C818   1.394       .  A
C817        H820   1.085       .  S
C818        C821   1.442       .  S
C821        N823   1.156       .  T
C822       C2775   1.444       .  S
C822        N824   1.157       .  T
C825        C826   1.407       .  A
C825        C830   1.413       .  A
C826        C827   1.390       .  A
C826        H831   1.084       .  S
C827        C828   1.409       .  A
C827        C834   1.443       .  S
C828        C829   1.407       .  A
C829        C830   1.397       .  A
C829        H832   1.084       .  S
C830        C833   1.442       .  S
C833        N835   1.157       .  T
C834        N836   1.156       .  T
C837        C838   1.403       .  A
C837        C842   1.417       .  A
C838        C839   1.404       .  A
C838        H843   1.084       .  S
C839        C840   1.411       .  A
C839        C846   1.444       .  S
C840        C841   1.398       .  A
C841        C842   1.398       .  A
C841        H844   1.085       .  S
C842        C845   1.445       .  S
C845        N847   1.157       .  T
C846        N848   1.157       .  T
C849        C850   1.399       .  A
C849        C854   1.409       .  A
C850        C851   1.404       .  A
C850        H855   1.084       .  S
C851        C852   1.418       .  A
C851        C858   1.442       .  S
C852        C853   1.407       .  A
C853        C854   1.391       .  A
C853        H856   1.085       .  S
C854        C857   1.448       .  S
C857        N859   1.157       .  T
C858        N860   1.157       .  T
C861        C862   1.405       .  A
C861        C866   1.411       .  A
C862        C863   1.410       .  A
C862        H867   1.085       .  S
C863        C864   1.418       .  A
C863        C870   1.442       .  S
C864        C865   1.411       .  A
C865        C866   1.400       .  A
C865        H868   1.085       .  S
C866        C869   1.445       .  S
C869        N871   1.157       .  T
C870        N872   1.157       .  T
C873        C874   1.405       .  A
C873        C878   1.419       .  A
C874        C875   1.412       .  A
C874        H879   1.084       .  S
C875        C876   1.416       .  A
C875        C882   1.443       .  S
C876        C877   1.401       .  A
C877        C878   1.406       .  A
C877        H880   1.083       .  S
C878        C881   1.444       .  S
C881        N883   1.157       .  T
C882        N884   1.157       .  T
C885        C886   1.412       .  A
C885        C890   1.416       .  A
C886        C887   1.395       .  A
C886        H891   1.084       .  S
C887        C888   1.407       .  A
C887        C894   1.445       .  S
C888        C889   1.411       .  A
C889        C890   1.415       .  A
C889        H892   1.084       .  S
C890        C893   1.443       .  S
C893        N895   1.157       .  T
C894        N896   1.157       .  T
C897        C898   1.402       .  A
C897        C902   1.411       .  A
C898        C899   1.396       .  A
C898        H903   1.085       .  S
C899        C900   1.410       .  A
C899        C906   1.445       .  S
C900        C901   1.406       .  A
C901        C902   1.408       .  A
C901        H904   1.084       .  S
C902        C905   1.442       .  S
C905        N907   1.157       .  T
C906        N908   1.157       .  T
C909        C910   1.399       .  A
C909        C914   1.414       .  A
C910        C911   1.399       .  A
C910        H915   1.083       .  S
C911        C912   1.417       .  A
C911        C918   1.445       .  S
C912        C913   1.408       .  A
C913        C914   1.412       .  A
C913        H916   1.084       .  S
C914        C917   1.443       .  S
C917        N919   1.157       .  T
C918        N920   1.157       .  T
C921        C922   1.403       .  A
C921        C926   1.423       .  A
C922        C923   1.407       .  A
C922        H927   1.084       .  S
C923        C924   1.415       .  A
C923        C930   1.443       .  S
C924        C925   1.399       .  A
C925        C926   1.406       .  A
C925        H928   1.085       .  S
C926        C929   1.444       .  S
C929        N931   1.157   1_554  T
C930        N932   1.157       .  T
C933        C934   1.407       .  A
C933        C938   1.414       .  A
C934        C935   1.409       .  A
C934        H939   1.084       .  S
C935        C936   1.411       .  A
C935        C942   1.442       .  S
C936        C937   1.399       .  A
C937        C938   1.391       .  A
C937        H940   1.086       .  S
C938        C941   1.445       .  S
C941        N943   1.157       .  T
C942        N944   1.157       .  T
C945        C946   1.408       .  A
C945        C950   1.423       .  A
C946        C947   1.405       .  A
C946        H951   1.084       .  S
C947        C948   1.409       .  A
C947        C954   1.442       .  S
C948        C949   1.395       .  A
C949        C950   1.391       .  A
C949        H952   1.086       .  S
C950        C953   1.445       .  S
C953        N955   1.157       .  T
C954       N1936   1.157       .  T
N956       C1934   1.157       .  T
C957        C958   1.402       .  A
C957        C962   1.413       .  A
C958        C959   1.391       .  A
C958        H963   1.085       .  S
C959        C960   1.413       .  A
C959        C966   1.447       .  S
C960        C961   1.407       .  A
C961        C962   1.412       .  A
C961        H964   1.084       .  S
C962        C965   1.442       .  S
C965        N967   1.157   1_554  T
C966        N968   1.157       .  T
C969        C970   1.409       .  A
C969        C974   1.412       .  A
C970        C971   1.398       .  A
C970        H975   1.085       .  S
C971        C972   1.409       .  A
C971        C978   1.444       .  S
C972        C973   1.409       .  A
C973        C974   1.408       .  A
C973        H976   1.084       .  S
C974        C977   1.442       .  S
C977        N979   1.157       .  T
C978        N980   1.157       .  T
O981       Ni987   1.912       .  S
O981       C1002   1.264       .  A
O982      Ni1005   1.938   1_556  S
O982        C991   1.278       .  A
O983       Ni987   1.895       .  S
O983      Ni1005   1.913       .  S
O983       Ni999   1.919       .  S
O983       H1006   0.967       .  S
C984       O1001   1.279       .  A
C984        O993   1.281       .  A
C984       C1889   1.487       .  S
O985      Ni1004   1.917       .  S
O985        C991   1.269       .  A
O986      Ni1004   1.897       .  S
O986        C988   1.265   1_556  A
Ni987       O990   1.904       .  S
Ni987       O992   1.889       .  S
C988        O998   1.281       .  A
C988       C1901   1.497       .  S
O989      Ni1005   1.948       .  S
O989        C995   1.286       .  A
O990        C995   1.275       .  A
C991       C1949   1.491       .  S
O992        C994   1.264   1_554  A
O993      Ni1004   1.930       .  S
C994       O1000   1.275       .  A
C994       C1913   1.481       .  S
C995       C1937   1.481       .  S
H996        O997   0.966       .  S
O997      Ni1005   1.933   1_556  S
O997       Ni999   1.898   1_556  S
O997      Ni1004   1.888       .  S
O998       Ni999   1.960       .  S
Ni999      O1003   1.921       .  S
Ni999      O1001   1.934   1_554  S
O1000     Ni1005   1.944   1_556  S
C1002      O1003   1.271       .  A
C1002      C1925   1.489       .  S
O1007     Ni1013   1.907       .  S
O1007      C1028   1.266       .  A
O1008     Ni1031   1.945       .  S
O1008      C1017   1.278       .  A
O1009     Ni1013   1.886       .  S
O1009     Ni1031   1.905       .  S
O1009     Ni1025   1.927       .  S
O1009      H1032   0.966       .  S
C1010      O1027   1.285       .  A
C1010      O1019   1.280       .  A
C1010      C1832   1.486       .  S
O1011     Ni1030   1.909       .  S
O1011      C1017   1.266       .  A
O1012     Ni1030   1.893       .  S
O1012      C1014   1.265       .  A
Ni1013     O1016   1.909       .  S
Ni1013     O1018   1.902       .  S
C1014      O1024   1.277       .  A
C1014      C1844   1.502       .  S
O1015     Ni1031   1.944       .  S
O1015      C1021   1.283       .  A
O1016      C1021   1.277       .  A
C1017      C1865   1.503       .  S
O1018      C1020   1.267       .  A
O1019     Ni1030   1.911       .  S
C1020      O1026   1.283       .  A
C1020      C1853   1.497       .  S
C1021      C1877   1.476       .  S
H1022      O1023   0.966       .  S
O1023     Ni1031   1.924       .  S
O1023     Ni1025   1.901       .  S
O1023     Ni1030   1.882       .  S
O1024     Ni1025   1.955       .  S
Ni1025     O1029   1.931       .  S
Ni1025     O1027   1.933       .  S
O1026     Ni1031   1.967       .  S
C1028      O1029   1.274       .  A
C1028      C1817   1.479       .  S
N1033      H1065   1.044       .  S
N1033      C1037   1.351       .  A
N1034      C1041   1.345       .  A
N1034      C1042   1.345       .  A
N1035      H1066   1.044       .  S
N1035      C1039   1.348       .  A
N1036      C1043   1.344       .  A
N1036      C1044   1.345       .  A
C1037      C1045   1.388       .  A
C1037      C1053   1.414       .  A
C1038      C1054   1.413       .  A
C1038      C1046   1.388       .  A
C1039      C1047   1.387       .  A
C1039      C1056   1.411       .  A
C1040      C1055   1.412       .  A
C1040      C1048   1.387       .  A
C1041      C1053   1.408       .  A
C1041      C1049   1.386       .  A
C1042      C1056   1.408       .  A
C1042      C1050   1.387       .  A
C1043      C1051   1.387       .  A
C1043      C1054   1.407       .  A
C1044      C1052   1.387       .  A
C1044      C1055   1.409       .  A
C1045      H1057   1.082       .  S
C1046      H1058   1.082       .  S
C1047      H1059   1.082       .  S
C1048      H1060   1.082       .  S
C1049      C1050   1.381       .  A
C1049      H1061   1.082       .  S
C1050      H1062   1.082       .  S
C1051      C1052   1.380       .  A
C1051      H1063   1.082       .  S
C1052      H1064   1.082       .  S
C1053      C1793   1.495       .  S
C1054      C1808   1.489       .  S
C1055      C1784   1.496       .  S
C1056      C1769   1.489       .  S
N1067      H1099   1.040       .  S
N1067      C1072   1.355       .  A
N1067      C1071   1.355       .  A
N1068      C1075   1.350       .  A
N1068      C1076   1.352       .  A
N1069      H1100   1.033       .  S
N1069      C1074   1.354       .  A
N1069      C1073   1.355       .  A
N1070      C1077   1.352       .  A
N1070      C1078   1.352       .  A
C1071      C1079   1.388       .  A
C1071      C1087   1.422       .  A
C1072      C1088   1.414       .  A
C1072      C1080   1.385       .  A
C1073      C1081   1.388       .  A
C1073      C1090   1.423       .  A
C1074      C1089   1.418       .  A
C1074      C1082   1.387       .  A
C1075      C1087   1.418       .  A
C1075      C1083   1.387       .  A
C1076      C1090   1.415       .  A
C1076      C1084   1.385       .  A
C1077      C1085   1.386       .  A
C1077      C1088   1.414       .  A
C1078      C1086   1.386       .  A
C1078      C1089   1.416       .  A
C1079      C1080   1.375       .  A
C1079      H1091   1.082       .  S
C1080      H1092   1.081       .  S
C1081      C1082   1.371       .  A
C1081      H1093   1.082       .  S
C1082      H1094   1.082       .  S
C1083      C1084   1.370       .  A
C1083      H1095   1.082       .  S
C1084      H1096   1.079       .  S
C1085      C1086   1.371       .  A
C1085      H1097   1.083       .  S
C1086      H1098   1.081       .  S
C1087      C1748   1.503       .  S
C1088      C1760   1.490       .  S
C1089      C1721   1.488       .  S
C1090      C1733   1.499       .  S
N1101      H1133   1.041       .  S
N1101      C1106   1.356       .  A
N1101      C3065   1.352   1_455  A
N1102      C1109   1.352       .  A
N1102      C1110   1.353       .  A
N1103      H1134   1.040       .  S
N1103      C1108   1.351       .  A
N1103      C3067   1.353   1_455  A
N1104      C1111   1.353       .  A
N1104      C1112   1.350       .  A
C1105      N3061   1.352       .  A
C1105      C1113   1.385       .  A
C1105      C1121   1.413       .  A
C1106      C1122   1.423       .  A
C1106      C1114   1.389       .  A
C1107      N3063   1.353       .  A
C1107      C1115   1.388       .  A
C1107      C1124   1.414       .  A
C1108      C1123   1.411       .  A
C1108      C1116   1.387       .  A
C1109      C1121   1.415       .  A
C1109      C1117   1.387       .  A
C1110      C1124   1.417       .  A
C1110      C1118   1.386       .  A
C1111      C1119   1.388       .  A
C1111      C1122   1.419       .  A
C1112      C1120   1.384       .  A
C1112      C1123   1.411       .  A
C1113      C3074   1.378       .  A
C1113      H1125   1.082       .  S
C1114      C3073   1.378       .  A
C1114      H1126   1.082       .  S
C1115      C3076   1.377       .  A
C1115      H1127   1.082       .  S
C1116      C3075   1.377   1_455  A
C1116      H1128   1.082       .  S
C1117      C1118   1.379       .  A
C1117      H1129   1.082       .  S
C1118      H1130   1.083       .  S
C1119      C1120   1.376       .  A
C1119      H1131   1.082       .  S
C1120      H1132   1.080       .  S
C1121      C1673   1.491       .  S
C1122      C1688   1.515       .  S
C1123      C1697   1.487       .  S
C1124      C1709   1.494       .  S
C1135      C1820   1.477       .  S
C1135      C3096   1.409       .  A
C1135      C1140   1.396       .  A
C1136      C1661   1.484       .  S
C1136      C3095   1.409   1_455  A
C1136      C1137   1.404       .  A
C1137      C1138   1.404       .  A
C1137      H1142   1.084       .  S
C1138      C1757   1.494       .  S
C1138      C3099   1.420   1_455  A
C1139      C1796   1.485       .  S
C1139      C3098   1.420       .  A
C1139      C1140   1.401       .  A
C1140      H1141   1.085       .  S
C1143      C1841   1.486       .  S
C1143      C1148   1.407       .  A
C1144      C1652   1.488       .  S
C1144      C1145   1.402       .  A
C1145      C1146   1.395       .  A
C1145      H1150   1.085       .  S
C1146      C1700   1.484       .  S
C1147      C1745   1.491       .  S
C1147      C1148   1.401       .  A
C1148      H1149   1.085       .  S
C1151      C1952   1.491       .  S
C1151      C1152   1.422       .  A
C1151      C1156   1.409       .  A
C1152      C1637   1.496       .  S
C1152      C1153   1.400       .  A
C1153      C1154   1.402       .  A
C1153      H1158   1.085       .  S
C1154      C1781   1.488       .  S
C1154      C1155   1.417       .  A
C1155      C1676   1.494       .  S
C1155      C1156   1.405       .  A
C1156      H1157   1.084       .  S
C1159      C1625   1.481       .  S
C1159      C1160   1.410       .  A
C1159      C1164   1.392       .  A
C1160      C1880   1.486       .  S
C1160      C1161   1.411       .  A
C1161      C1162   1.407       .  A
C1161      H1166   1.084       .  S
C1162      C1712   1.495       .  S
C1162      C1163   1.422       .  A
C1163      C1805   1.490       .  S
C1163      C1164   1.401       .  A
C1164      H1165   1.085       .  S
C1167      C1892   1.499       .  S
C1167      C1172   1.409       .  A
C1168      C1613   1.490       .  S
C1168      C1169   1.409       .  A
C1169      C1170   1.404       .  A
C1169      H1174   1.085       .  S
C1170      C1685   1.493       .  S
C1171      C1736   1.505       .  S
C1171      C1172   1.406       .  A
C1172      H1173   1.084       .  S
C1175      C1604   1.484       .  S
C1175      C3136   1.414   1_455  A
C1175      C1180   1.404       .  A
C1176      C1916   1.480       .  S
C1176      C3135   1.414       .  A
C1176      C1177   1.402       .  A
C1177      C1178   1.398       .  A
C1177      H1182   1.085       .  S
C1178      C1772   1.488       .  S
C1178      C3139   1.415       .  A
C1179      C1724   1.487       .  S
C1179      C3138   1.415   1_455  A
C1179      C1180   1.403       .  A
C1180      H1181   1.085       .  S
O1183     Ni1189   1.920       .  S
O1183      C1204   1.270       .  A
O1184     Ni1207   1.932       .  S
O1184      C1193   1.276       .  A
O1185     Ni1189   1.883       .  S
O1185     Ni1207   1.899       .  S
O1185     Ni1201   1.912       .  S
O1185      H1208   0.966       .  S
C1186      O1203   1.279       .  A
C1186      O1195   1.278       .  A
C1186      C1664   1.474       .  S
O1187     Ni1206   1.908       .  S
O1187      C1193   1.264       .  A
O1188     Ni1206   1.898       .  S
O1188      C1190   1.264       .  A
Ni1189     O1192   1.910       .  S
Ni1189     O1194   1.893       .  S
C1190      O1200   1.276       .  A
C1190      C1565   1.487       .  S
O1191     Ni1207   1.934       .  S
O1191      C1197   1.285       .  A
O1192      C1197   1.279       .  A
C1193      C1628   1.487       .  S
O1194      C1196   1.266       .  A
O1195     Ni1206   1.919       .  S
C1196      O1202   1.282       .  A
C1196      C1649   1.501       .  S
C1197      C1589   1.481       .  S
H1198      O1199   0.967       .  S
O1199     Ni1207   1.930       .  S
O1199     Ni1201   1.899       .  S
O1199     Ni1206   1.903       .  S
O1200     Ni1201   1.947       .  S
Ni1201     O1205   1.916       .  S
Ni1201     O1203   1.928       .  S
O1202     Ni1207   1.957       .  S
C1204      O1205   1.270       .  A
C1204      C1577   1.485       .  S
O1209     Ni1215   1.916       .  S
O1209      C1230   1.268       .  A
O1210     Ni1233   1.917       .  S
O1210      C1219   1.272       .  A
O1211     Ni1215   1.885       .  S
O1211     Ni1233   1.895   1_554  S
O1211     Ni1227   1.921   1_554  S
O1211      H1234   0.964       .  S
C1212      O1229   1.285       .  A
C1212      O1221   1.278       .  A
C1212      C1601   1.486       .  S
O1213     Ni1232   1.943       .  S
O1213      C1219   1.275       .  A
O1214     Ni1232   1.897       .  S
O1214      C1216   1.268   1_556  A
Ni1215     O1218   1.919       .  S
Ni1215     O1220   1.910       .  S
C1216      O1226   1.278       .  A
C1216      C1541   1.491       .  S
O1217     Ni1233   1.927   1_554  S
O1217      C1223   1.276       .  A
O1218      C1223   1.278       .  A
C1219      C1616   1.497       .  S
O1220      C1222   1.268   1_554  A
O1221     Ni1232   1.921       .  S
C1222      O1228   1.276       .  A
C1222      C1640   1.491       .  S
C1223      C1553   1.468       .  S
H1224      O1225   0.958       .  S
O1225     Ni1233   1.903       .  S
O1225     Ni1227   1.918       .  S
O1225     Ni1232   1.890       .  S
O1226     Ni1227   1.954   1_554  S
Ni1227     O1231   1.949   1_556  S
Ni1227     O1229   1.936       .  S
O1228     Ni1233   1.941       .  S
C1230      O1231   1.283       .  A
C1230      C1529   1.502       .  S
N1235      H1267   1.036       .  S
N1235      C3200   1.359       .  A
N1235      C1239   1.361       .  A
N1236      C1243   1.348       .  A
N1236      C1244   1.351       .  A
N1237      H1268   1.041       .  S
N1237      C3202   1.347       .  A
N1237      C1241   1.347       .  A
N1238      C1245   1.353       .  A
N1238      C1246   1.356       .  A
C1239      C1247   1.384       .  A
C1239      C1255   1.429       .  A
C1240      N3195   1.359   1_455  A
C1240      C1256   1.434       .  A
C1240      C1248   1.391       .  A
C1241      C1249   1.385       .  A
C1241      C1258   1.402       .  A
C1242      N3197   1.347   1_455  A
C1242      C1257   1.406       .  A
C1242      C1250   1.387       .  A
C1243      C1255   1.413       .  A
C1243      C1251   1.388       .  A
C1244      C1258   1.407       .  A
C1244      C1252   1.382       .  A
C1245      C1253   1.392       .  A
C1245      C1256   1.427       .  A
C1246      C1254   1.381       .  A
C1246      C1257   1.416       .  A
C1247      C3208   1.374       .  A
C1247      H1259   1.082       .  S
C1248      C3207   1.374   1_455  A
C1248      H1260   1.079       .  S
C1249      C3210   1.374       .  A
C1249      H1261   1.082       .  S
C1250      C3209   1.374   1_455  A
C1250      H1262   1.083       .  S
C1251      C1252   1.372       .  A
C1251      H1263   1.082       .  S
C1252      H1264   1.079       .  S
C1253      C1254   1.361       .  A
C1253      H1265   1.077       .  S
C1254      H1266   1.080       .  S
C1255      C1496   1.505       .  S
C1256      C1517   1.505       .  S
C1257      C1508   1.497       .  S
C1258      C1481   1.479       .  S
N1269      H1301   1.041       .  S
N1269      C1274   1.352       .  A
N1269      C1273   1.352       .  A
N1270      C1277   1.353       .  A
N1270      C1278   1.349       .  A
N1271      H1302   1.038       .  S
N1271      C1276   1.356       .  A
N1271      C1275   1.354       .  A
N1272      C1279   1.347       .  A
N1272      C1280   1.348       .  A
C1273      C1281   1.386       .  A
C1273      C1289   1.413       .  A
C1274      C1290   1.408       .  A
C1274      C1282   1.386       .  A
C1275      C1283   1.388       .  A
C1275      C1292   1.419       .  A
C1276      C1291   1.413       .  A
C1276      C1284   1.385       .  A
C1277      C1289   1.414       .  A
C1277      C1285   1.383       .  A
C1278      C1292   1.422       .  A
C1278      C1286   1.389       .  A
C1279      C1287   1.384       .  A
C1279      C1290   1.407       .  A
C1280      C1288   1.386       .  A
C1280      C1291   1.409       .  A
C1281      C1282   1.364       .  A
C1281      H1293   1.080       .  S
C1282      H1294   1.080       .  S
C1283      C1284   1.371       .  A
C1283      H1295   1.082       .  S
C1284      H1296   1.082       .  S
C1285      C1286   1.363       .  A
C1285      H1297   1.079       .  S
C1286      H1298   1.078       .  S
C1287      C1288   1.372       .  A
C1287      H1299   1.082       .  S
C1288      H1300   1.082       .  S
C1289      C1457   1.499       .  S
C1290      C1436   1.478       .  S
C1291      C1445   1.486       .  S
C1292      C1469   1.493       .  S
C1303      C1592   1.484       .  S
C1303      C1308   1.402       .  A
C1304      C1829   1.472       .  S
C1304      C1305   1.397       .  A
C1305      C1306   1.394       .  A
C1305      H1310   1.086       .  S
C1306      C1484   1.485       .  S
C1307      C1460   1.490       .  S
C1307      C1308   1.404       .  A
C1308      H1309   1.084       .  S
N1311      H1343   1.039   1_565  S
N1311      C1316   1.365       .  A
N1312      C1319   1.358       .  A
N1312      C1320   1.360       .  A
N1313      H1344   1.042       .  S
N1313      C1318   1.354       .  A
N1314      C1321   1.349       .  A
N1314      C1322   1.351       .  A
C1315      C1323   1.388       .  A
C1315      C1331   1.435       .  A
C1316      C1332   1.436       .  A
C1316      C1324   1.387       .  A
C1317      C1325   1.387       .  A
C1317      C1334   1.411       .  A
C1318      C1333   1.416       .  A
C1318      C1326   1.386       .  A
C1319      C1331   1.429       .  A
C1319      C1327   1.389       .  A
C1320      C1334   1.424       .  A
C1320      C1328   1.383       .  A
C1321      C1329   1.388       .  A
C1321      C1332   1.416       .  A
C1322      C1330   1.386       .  A
C1322      C1333   1.414       .  A
C1323      H1335   1.079       .  S
C1324      H1336   1.080       .  S
C1325      H1337   1.079       .  S
C1326      H1338   1.080       .  S
C1327      C1328   1.377       .  A
C1327      H1339   1.081       .  S
C1328      H1340   1.080       .  S
C1329      C1330   1.379       .  A
C1329      H1341   1.082       .  S
C1330      H1342   1.082       .  S
C1331      C1409   1.517       .  S
C1332      C1388   1.523       .  S
C1333      C1397   1.504       .  S
C1334      C1424   1.506       .  S
C1345      C1556   1.473       .  S
C1345      C1350   1.395       .  A
C1346      C1928   1.477       .  S
C1346      C1347   1.408       .  A
C1347      C1348   1.404       .  A
C1347      H1352   1.085       .  S
C1348      C1493   1.499       .  S
C1349      C1472   1.474       .  S
C1349      C1350   1.393       .  A
C1350      H1351   1.086       .  S
C1353      C1868   1.495       .  S
C1353      C1354   1.418       .  A
C1353      C1358   1.418       .  A
C1354      C1568   1.494       .  S
C1354      C1355   1.400       .  A
C1355      C1356   1.400       .  A
C1355      H1360   1.086       .  S
C1356      C1505   1.474       .  S
C1356      C1357   1.423       .  A
C1357      C1412   1.522       .  S
C1357      C1358   1.413       .  A
C1358      H1359   1.084       .  S
C1361      C1904   1.494       .  S
C1361      C1362   1.416       .  A
C1361      C1366   1.409       .  A
C1362      C1532   1.492       .  S
C1362      C1363   1.403       .  A
C1363      C1364   1.408       .  A
C1363      H1368   1.082       .  S
C1364      C1520   1.508       .  S
C1364      C1365   1.433       .  A
C1365      C1421   1.508       .  S
C1365      C1366   1.410       .  A
C1366      H1367   1.084       .  S
C1369      C1856   1.498       .  S
C1369      C3330   1.413       .  A
C1369      C1374   1.397       .  A
C1370      C1580   1.477       .  S
C1370      C3329   1.413   1_455  A
C1370      C1371   1.411       .  A
C1371      C1372   1.405       .  A
C1371      H1376   1.084       .  S
C1372      C1385   1.513       .  S
C1372      C3333   1.425   1_455  A
C1373      C1433   1.488       .  S
C1373      C3332   1.425       .  A
C1373      C1374   1.410       .  A
C1374      H1375   1.084       .  S
C1377      C1544   1.488       .  S
C1377      C3338   1.416       .  A
C1377      C1382   1.412       .  A
C1378      C1940   1.487       .  S
C1378      C3337   1.416       .  A
C1378      C1379   1.400       .  A
C1379      C1380   1.395       .  A
C1379      H1384   1.086       .  S
C1380      C1448   1.486       .  S
C1380      C3341   1.418       .  A
C1381      C1400   1.495       .  S
C1381      C3340   1.418       .  A
C1381      C1382   1.408       .  A
C1382      H1383   1.084       .  S
C1385      C1386   1.407       .  A
C1385      C1390   1.416       .  A
C1386      C1387   1.409       .  A
C1386      H3351   1.085       .  S
C1387      C1388   1.422       .  A
C1387      C1394   1.443       .  S
C1388      C1389   1.408       .  A
C1389      C1390   1.409       .  A
C1389      H1392   1.084       .  S
C1390      C1393   1.443       .  S
H1391      C3346   1.085       .  S
C1393      N1395   1.157       .  T
C1394      N3356   1.157       .  T
N1396      C3354   1.157       .  T
C1397      C1398   1.406       .  A
C1397      C1402   1.418       .  A
C1398      C1399   1.400       .  A
C1398      H1403   1.083       .  S
C1399      C1400   1.413       .  A
C1399      C3366   1.443       .  S
C1400      C1401   1.405       .  A
C1401      C1402   1.402       .  A
C1401      H1404   1.085       .  S
C1402      C1405   1.445       .  S
C1405      N1407   1.157       .  T
C1406      C3359   1.443       .  S
C1406      N1408   1.157       .  T
C1409      C1410   1.408       .  A
C1409      C1414   1.413       .  A
C1410      C1411   1.412       .  A
C1410      H1415   1.084       .  S
C1411      C1412   1.418       .  A
C1411      C1418   1.442       .  S
C1412      C1413   1.410       .  A
C1413      C1414   1.408       .  A
C1413      H1416   1.074       .  S
C1414      C1417   1.445       .  S
C1417      N1419   1.157       .  T
C1418      N1420   1.157       .  T
C1421      C1422   1.408       .  A
C1421      C1426   1.416       .  A
C1422      C1423   1.405       .  A
C1422      H1427   1.084       .  S
C1423      C1424   1.414       .  A
C1423      C1430   1.443       .  S
C1424      C1425   1.408       .  A
C1425      C1426   1.408       .  A
C1425      H1428   1.084       .  S
C1426      C1429   1.444       .  S
C1429      N1431   1.157       .  T
C1430      N1432   1.157       .  T
C1433      C1434   1.407       .  A
C1433      C1438   1.417       .  A
C1434      C1435   1.396       .  A
C1434      H3399   1.084       .  S
C1435      C1436   1.407       .  A
C1435      C1442   1.444       .  S
C1436      C1437   1.398       .  A
C1437      C1438   1.393       .  A
C1437      H1440   1.085       .  S
C1438      C1441   1.445       .  S
H1439      C3394   1.084   1_455  S
C1441      N1443   1.157       .  T
C1442      N3404   1.157       .  T
N1444      C3402   1.157   1_455  T
C1445      C1446   1.404       .  A
C1445      C1450   1.407       .  A
C1446      C1447   1.401       .  A
C1446      H1451   1.085       .  S
C1447      C1448   1.410       .  A
C1447      C1454   1.443       .  S
C1448      C1449   1.406       .  A
C1449      C1450   1.397       .  A
C1449      H1452   1.084       .  S
C1450      C1453   1.443       .  S
C1453      N1455   1.157       .  T
C1454      N1456   1.157       .  T
C1457      C1458   1.403       .  A
C1457      C1462   1.416       .  A
C1458      C1459   1.394       .  A
C1458      H1463   1.079       .  S
C1459      C1460   1.410       .  A
C1460      C1461   1.405       .  A
C1461      C1462   1.397       .  A
C1461      H1464   1.084       .  S
C1462      C1465   1.445       .  S
C1465      N1467   1.157       .  T
C1466      N1468   1.157       .  T
C1469      C1470   1.406       .  A
C1469      C1474   1.413       .  A
C1470      C1471   1.392       .  A
C1470      H1475   1.084       .  S
C1471      C1472   1.405       .  A
C1471      C1478   1.444       .  S
C1472      C1473   1.403       .  A
C1473      C1474   1.400       .  A
C1473      H1476   1.084       .  S
C1474      C1477   1.445       .  S
C1477      N1479   1.157       .  T
C1478      N1480   1.157       .  T
C1481      C1482   1.404       .  A
C1481      C1486   1.405       .  A
C1482      C1483   1.399       .  A
C1482      H1487   1.085       .  S
C1483      C1484   1.410       .  A
C1484      C1485   1.408       .  A
C1485      C1486   1.397       .  A
C1485      H1488   1.085       .  S
C1486      C1489   1.444       .  S
C1489      N1491   1.157       .  T
C1490      N1492   1.157   1_545  T
C1493      C1494   1.403       .  A
C1493      C1498   1.413       .  A
C1494      C1495   1.399       .  A
C1494      H1499   1.072       .  S
C1495      C1496   1.410       .  A
C1495      C1502   1.444       .  S
C1496      C1497   1.410       .  A
C1497      C1498   1.406       .  A
C1497      H1500   1.085       .  S
C1498      C1501   1.443       .  S
C1502      N1504   1.157       .  T
C1505      C1506   1.403       .  A
C1505      C1510   1.404       .  A
C1506      C1507   1.402       .  A
C1506      H1511   1.084       .  S
C1507      C1508   1.414       .  A
C1507      C1514   1.445       .  S
C1508      C1509   1.408       .  A
C1509      C1510   1.391       .  A
C1509      H1512   1.084       .  S
C1510      C1513   1.445       .  S
C1513      N1515   1.157       .  T
C1514      N1516   1.157       .  T
C1517      C1518   1.407       .  A
C1517      C1522   1.414       .  A
C1518      C1519   1.395       .  A
C1518      H1523   1.084       .  S
C1519      C1520   1.407       .  A
C1519      C1526   1.443       .  S
C1520      C1521   1.413       .  A
C1521      C1522   1.404       .  A
C1521      H1524   1.082       .  S
C1522      C1525   1.445       .  S
C1525      N1527   1.157       .  T
C1526      N1528   1.158       .  T
C1529      C1530   1.405       .  A
C1529      C1534   1.427       .  A
C1530      C1531   1.408       .  A
C1530      H1535   1.084       .  S
C1531      C1532   1.416       .  A
C1531      C1538   1.444       .  S
C1532      C1533   1.397       .  A
C1533      C1534   1.405       .  A
C1533      H1536   1.085       .  S
C1534      C1537   1.445       .  S
C1537      N1539   1.157       .  T
C1538      N1540   1.157       .  T
C1541      C1542   1.410       .  A
C1541      C1546   1.416       .  A
C1542      C1543   1.412       .  A
C1542      H1547   1.084       .  S
C1543      C1544   1.413       .  A
C1543      C1550   1.443       .  S
C1544      C1545   1.401       .  A
C1545      C1546   1.395       .  A
C1545      H1548   1.086       .  S
C1546      C1549   1.445       .  S
C1549      N1551   1.157       .  T
C1550      N1552   1.157       .  T
C1553      C1554   1.401       .  A
C1553      C1558   1.409       .  A
C1554      C1555   1.401       .  A
C1554      H1559   1.085       .  S
C1555      C1556   1.411       .  A
C1555      C1562   1.444       .  S
C1556      C1557   1.400       .  A
C1557      C1558   1.397       .  A
C1557      H1560   1.084       .  S
C1558      C1561   1.444       .  S
C1561      N1563   1.157       .  T
C1562      N1564   1.157       .  T
C1565      C1566   1.406       .  A
C1565      C1570   1.410       .  A
C1566      C1567   1.403       .  A
C1566      H1571   1.085       .  S
C1567      C1568   1.414       .  A
C1567      C1574   1.442       .  S
C1568      C1569   1.408       .  A
C1569      C1570   1.405       .  A
C1569      H1572   1.085       .  S
C1570      C1573   1.442       .  S
C1573      N1575   1.157       .  T
C1574      N1576   1.157       .  T
C1577      C1578   1.406       .  A
C1577      C1582   1.415       .  A
C1578      C1579   1.396       .  A
C1578      H1583   1.085       .  S
C1579      C1580   1.409       .  A
C1579      C1586   1.445       .  S
C1580      C1581   1.403       .  A
C1581      C1582   1.405       .  A
C1581      H1584   1.085       .  S
C1582      C1585   1.444       .  S
C1585      N1587   1.157       .  T
C1586      N3548   1.157       .  T
N1588      C3546   1.157       .  T
C1589      C1590   1.401       .  A
C1589      C1594   1.418       .  A
C1590      C1591   1.400       .  A
C1590      H1595   1.085       .  S
C1591      C1592   1.415       .  A
C1591      C1598   1.444       .  S
C1592      C1593   1.400       .  A
C1593      C1594   1.399       .  A
C1593      H1596   1.083       .  S
C1594      C1597   1.446       .  S
C1597      N1599   1.157       .  T
C1598      N1600   1.157       .  T
C1601      C1602   1.408       .  A
C1601      C1606   1.417       .  A
C1602      C1603   1.412       .  A
C1602      H1607   1.084       .  S
C1603      C1604   1.412       .  A
C1603      C3570   1.442       .  S
C1604      C1605   1.398       .  A
C1605      C1606   1.392       .  A
C1605      H1608   1.086       .  S
C1606      C1609   1.446       .  S
C1609      N1611   1.157       .  T
C1610      C3563   1.442       .  S
C1610      N1612   1.157       .  T
C1613      C1614   1.406       .  A
C1613      C1618   1.408       .  A
C1614      C1615   1.408       .  A
C1614      H1619   1.085       .  S
C1615      C1616   1.416       .  A
C1615      C1622   1.444       .  S
C1616      C1617   1.410       .  A
C1617      C1618   1.404       .  A
C1617      H1620   1.085       .  S
C1618      C1621   1.444       .  S
C1621      N1623   1.157       .  T
C1622      N1624   1.157       .  T
C1625      C1626   1.394       .  A
C1625      C1630   1.416       .  A
C1626      C1627   1.396       .  A
C1626      H1631   1.085       .  S
C1627      C1628   1.424       .  A
C1627      C1634   1.445       .  S
C1628      C1629   1.403       .  A
C1629      C1630   1.402       .  A
C1629      H1632   1.085       .  S
C1630      C1633   1.445       .  S
C1633      N1635   1.157       .  T
C1634      N1636   1.157       .  T
C1637      C1638   1.409       .  A
C1637      C1642   1.411       .  A
C1638      C1639   1.405       .  A
C1638      H1643   1.085       .  S
C1639      C1640   1.412       .  A
C1639      C1646   1.444       .  S
C1640      C1641   1.409       .  A
C1641      C1642   1.404       .  A
C1641      H1644   1.085       .  S
C1642      C1645   1.443       .  S
C1645      N1647   1.157       .  T
C1646      N1648   1.157       .  T
C1649      C1650   1.410       .  A
C1649      C1654   1.417       .  A
C1650      C1651   1.401       .  A
C1650      H1655   1.085       .  S
C1651      C1652   1.411       .  A
C1651      C1658   1.445       .  S
C1652      C1653   1.406       .  A
C1653      C1654   1.411       .  A
C1653      H1656   1.085       .  S
C1654      C1657   1.443       .  S
C1657      N1659   1.157       .  T
C1658      N1660   1.157       .  T
C1661      C1662   1.404       .  A
C1661      C1666   1.411       .  A
C1662      C1663   1.401       .  A
C1662      H1667   1.084       .  S
C1663      C1664   1.409       .  A
C1663      C1670   1.443       .  S
C1664      C1665   1.403       .  A
C1665      C1666   1.400       .  A
C1665      H1668   1.085       .  S
C1666      C1669   1.445       .  S
C1669      N1671   1.157       .  T
C1670      N1672   1.157       .  T
C1673      C1674   1.402       .  A
C1673      C1678   1.411       .  A
C1674      C1675   1.404       .  A
C1674      H1679   1.084       .  S
C1675      C1676   1.416       .  A
C1675      C1682   1.445       .  S
C1676      C1677   1.405       .  A
C1677      C1678   1.402       .  A
C1677      H1680   1.085       .  S
C1678      C1681   1.444       .  S
C1681      N1683   1.157       .  T
C1682      N1684   1.157       .  T
C1685      C1686   1.403       .  A
C1685      C1690   1.409       .  A
C1686      C1687   1.410       .  A
C1686      H1691   1.084       .  S
C1687      C1688   1.422       .  A
C1687      C1694   1.445       .  S
C1688      C1689   1.409       .  A
C1689      C1690   1.397       .  A
C1689      H1692   1.083       .  S
C1693      N1695   1.157       .  T
C1694      N1696   1.158       .  T
C1697      C1698   1.405       .  A
C1697      C1702   1.410       .  A
C1698      C1699   1.401       .  A
C1698      H1703   1.085       .  S
C1699      C1700   1.412       .  A
C1700      C1701   1.402       .  A
C1701      C1702   1.397       .  A
C1701      H1704   1.085       .  S
C1702      C1705   1.443       .  S
C1705      N1707   1.157       .  T
C1706      N1708   1.157       .  T
C1709      C1710   1.404       .  A
C1709      C1714   1.410       .  A
C1710      C1711   1.403       .  A
C1710      H1715   1.084       .  S
C1711      C1712   1.413       .  A
C1711      C1718   1.444       .  S
C1712      C1713   1.407       .  A
C1713      C1714   1.404       .  A
C1713      H1716   1.084       .  S
C1714      C1717   1.443       .  S
C1717      N1719   1.157       .  T
C1718      N1720   1.157       .  T
C1721      C1722   1.401       .  A
C1721      C1726   1.412       .  A
C1722      C1723   1.397       .  A
C1722      H1727   1.085       .  S
C1723      C1724   1.412       .  A
C1723      C1730   1.444       .  S
C1724      C1725   1.405       .  A
C1725      C1726   1.401       .  A
C1725      H3688   1.085   1_455  S
C1726      C3689   1.444       .  S
H1728      C3685   1.085       .  S
C1729      C3686   1.444       .  S
C1729      N1731   1.157       .  T
C1730      N1732   1.157       .  T
C1733      C1734   1.407       .  A
C1733      C1738   1.410       .  A
C1734      C1735   1.409       .  A
C1734      H1739   1.084       .  S
C1735      C1736   1.420       .  A
C1735      C1742   1.444       .  S
C1736      C1737   1.401       .  A
C1737      C1738   1.391       .  A
C1737      H1740   1.070       .  S
C1738      C1741   1.447       .  S
C1741      N1743   1.157       .  T
C1742      N1744   1.157       .  T
C1745      C1746   1.405       .  A
C1745      C1750   1.409       .  A
C1746      C1747   1.402       .  A
C1746      H1751   1.084       .  S
C1747      C1748   1.415       .  A
C1747      C1754   1.444       .  S
C1748      C1749   1.407       .  A
C1749      C1750   1.395       .  A
C1749      H1752   1.082       .  S
C1750      C1753   1.444       .  S
C1754      N1756   1.157       .  T
C1757      C1758   1.407       .  A
C1757      C1762   1.415       .  A
C1758      C1759   1.401       .  A
C1758      H1763   1.084   1_455  S
C1759      C1760   1.411       .  A
C1759      C1766   1.443       .  S
C1760      C1761   1.402       .  A
C1761      C1762   1.398       .  A
C1761      H1764   1.085       .  S
C1762      C1765   1.445       .  S
C1765      N1767   1.157       .  T
C1766      N1768   1.157   1_455  T
C1769      C1770   1.405       .  A
C1769      C1774   1.413       .  A
C1770      C1771   1.397       .  A
C1770      H1775   1.085       .  S
C1771      C1772   1.414       .  A
C1771      C1778   1.445       .  S
C1772      C1773   1.403       .  A
C1773      C1774   1.396       .  A
C1773      H3736   1.084       .  S
C1774      C1777   1.443       .  S
H1776      C3733   1.084       .  S
C1777      N3739   1.157       .  T
C1778      N1780   1.157       .  T
N1779      C3737   1.157       .  T
C1781      C1782   1.404       .  A
C1781      C1786   1.412       .  A
C1782      C1783   1.395       .  A
C1782      H1787   1.085       .  S
C1783      C1784   1.415       .  A
C1783      C1790   1.445       .  S
C1784      C1785   1.408       .  A
C1785      C1786   1.399       .  A
C1785      H1788   1.084       .  S
C1786      C1789   1.443       .  S
C1789      N1791   1.157       .  T
C1790      N1792   1.157       .  T
C1793      C1794   1.408       .  A
C1793      C1798   1.413       .  A
C1794      C1795   1.398       .  A
C1794      H1799   1.082       .  S
C1795      C1796   1.410       .  A
C1795      C3762   1.444       .  S
C1796      C1797   1.403       .  A
C1797      C1798   1.394       .  A
C1797      H1800   1.085       .  S
C1798      C1801   1.442       .  S
C1801      N1803   1.156       .  T
C1802      C3755   1.444       .  S
C1802      N1804   1.157       .  T
C1805      C1806   1.407       .  A
C1805      C1810   1.413       .  A
C1806      C1807   1.390       .  A
C1806      H1811   1.084       .  S
C1807      C1808   1.409       .  A
C1807      C1814   1.443       .  S
C1808      C1809   1.407       .  A
C1809      C1810   1.397       .  A
C1809      H1812   1.084       .  S
C1810      C1813   1.442       .  S
C1813      N1815   1.157       .  T
C1814      N1816   1.156       .  T
C1817      C1818   1.403       .  A
C1817      C1822   1.417       .  A
C1818      C1819   1.404       .  A
C1818      H1823   1.084       .  S
C1819      C1820   1.411       .  A
C1819      C1826   1.444       .  S
C1820      C1821   1.398       .  A
C1821      C1822   1.398       .  A
C1821      H1824   1.085       .  S
C1822      C1825   1.445       .  S
C1825      N1827   1.157       .  T
C1826      N1828   1.157       .  T
C1829      C1830   1.399       .  A
C1829      C1834   1.409       .  A
C1830      C1831   1.404       .  A
C1830      H1835   1.084       .  S
C1831      C1832   1.418       .  A
C1831      C1838   1.442       .  S
C1832      C1833   1.407       .  A
C1833      C1834   1.391       .  A
C1833      H1836   1.085       .  S
C1834      C1837   1.448       .  S
C1837      N1839   1.157       .  T
C1838      N1840   1.157       .  T
C1841      C1842   1.405       .  A
C1841      C1846   1.411       .  A
C1842      C1843   1.410       .  A
C1842      H1847   1.085       .  S
C1843      C1844   1.418       .  A
C1843      C1850   1.442       .  S
C1844      C1845   1.411       .  A
C1845      C1846   1.400       .  A
C1845      H1848   1.085       .  S
C1846      C1849   1.445       .  S
C1849      N1851   1.157       .  T
C1850      N1852   1.157       .  T
C1853      C1854   1.405       .  A
C1853      C1858   1.419       .  A
C1854      C1855   1.412       .  A
C1854      H1859   1.084       .  S
C1855      C1856   1.416       .  A
C1855      C1862   1.443       .  S
C1856      C1857   1.401       .  A
C1857      C1858   1.406       .  A
C1857      H1860   1.083       .  S
C1858      C1861   1.444       .  S
C1861      N1863   1.157       .  T
C1862      N1864   1.157       .  T
C1865      C1866   1.412       .  A
C1865      C1870   1.416       .  A
C1866      C1867   1.395       .  A
C1866      H1871   1.084       .  S
C1867      C1868   1.407       .  A
C1867      C1874   1.445       .  S
C1868      C1869   1.411       .  A
C1869      C1870   1.415       .  A
C1869      H1872   1.084       .  S
C1870      C1873   1.443       .  S
C1873      N1875   1.157       .  T
C1874      N1876   1.157       .  T
C1877      C1878   1.402       .  A
C1877      C1882   1.411       .  A
C1878      C1879   1.396       .  A
C1878      H1883   1.085       .  S
C1879      C1880   1.410       .  A
C1879      C1886   1.445       .  S
C1880      C1881   1.406       .  A
C1881      C1882   1.408       .  A
C1881      H1884   1.084       .  S
C1882      C1885   1.442       .  S
C1885      N1887   1.157       .  T
C1886      N1888   1.157       .  T
C1889      C1890   1.399       .  A
C1889      C1894   1.414       .  A
C1890      C1891   1.399       .  A
C1890      H1895   1.083       .  S
C1891      C1892   1.417       .  A
C1891      C1898   1.445       .  S
C1892      C1893   1.408       .  A
C1893      C1894   1.412       .  A
C1893      H1896   1.084       .  S
C1894      C1897   1.443       .  S
C1897      N1899   1.157       .  T
C1898      N1900   1.157       .  T
C1901      C1902   1.403       .  A
C1901      C1906   1.423       .  A
C1902      C1903   1.407       .  A
C1902      H1907   1.084       .  S
C1903      C1904   1.415       .  A
C1903      C1910   1.443       .  S
C1904      C1905   1.399       .  A
C1905      C1906   1.406       .  A
C1905      H1908   1.085       .  S
C1906      C1909   1.444       .  S
C1909      N1911   1.157   1_554  T
C1910      N1912   1.157       .  T
C1913      C1914   1.407       .  A
C1913      C1918   1.414       .  A
C1914      C1915   1.409       .  A
C1914      H1919   1.084       .  S
C1915      C1916   1.411       .  A
C1915      C1922   1.442       .  S
C1916      C1917   1.399       .  A
C1917      C1918   1.391       .  A
C1917      H1920   1.086       .  S
C1918      C1921   1.445       .  S
C1921      N1923   1.157       .  T
C1922      N1924   1.157       .  T
C1925      C1926   1.408       .  A
C1925      C1930   1.423       .  A
C1926      C1927   1.405       .  A
C1926      H1931   1.084       .  S
C1927      C1928   1.409       .  A
C1927      C1934   1.442       .  S
C1928      C1929   1.395       .  A
C1929      C1930   1.391       .  A
C1929      H1932   1.086       .  S
C1930      C1933   1.445       .  S
C1933      N1935   1.157       .  T
C1937      C1938   1.402       .  A
C1937      C1942   1.413       .  A
C1938      C1939   1.391       .  A
C1938      H1943   1.085       .  S
C1939      C1940   1.413       .  A
C1939      C1946   1.447       .  S
C1940      C1941   1.407       .  A
C1941      C1942   1.412       .  A
C1941      H1944   1.084       .  S
C1942      C1945   1.442       .  S
C1945      N1947   1.157   1_554  T
C1946      N1948   1.157       .  T
C1949      C1950   1.409       .  A
C1949      C1954   1.412       .  A
C1950      C1951   1.398       .  A
C1950      H1955   1.085       .  S
C1951      C1952   1.409       .  A
C1951      C1958   1.444       .  S
C1952      C1953   1.409       .  A
C1953      C1954   1.408       .  A
C1953      H1956   1.084       .  S
C1954      C1957   1.442       .  S
C1957      N1959   1.157       .  T
C1958      N1960   1.157       .  T
O1961     Ni1967   1.912       .  S
O1961      C1982   1.264       .  A
O1962     Ni1985   1.938   1_556  S
O1962      C1971   1.278       .  A
O1963     Ni1967   1.895       .  S
O1963     Ni1985   1.913       .  S
O1963     Ni1979   1.919       .  S
O1963      H1986   0.967       .  S
C1964      O1981   1.279       .  A
C1964      O1973   1.281       .  A
C1964      C2869   1.487       .  S
O1965     Ni1984   1.917       .  S
O1965      C1971   1.269       .  A
O1966     Ni1984   1.897       .  S
O1966      C1968   1.265   1_556  A
Ni1967     O1970   1.904       .  S
Ni1967     O1972   1.889       .  S
C1968      O1978   1.281       .  A
C1968      C2881   1.497       .  S
O1969     Ni1985   1.948       .  S
O1969      C1975   1.286       .  A
O1970      C1975   1.275       .  A
C1971      C2929   1.491       .  S
O1972      C1974   1.264   1_554  A
O1973     Ni1984   1.930       .  S
C1974      O1980   1.275       .  A
C1974      C2893   1.481       .  S
C1975      C2917   1.481       .  S
H1976      O1977   0.966       .  S
O1977     Ni1985   1.933   1_556  S
O1977     Ni1979   1.898   1_556  S
O1977     Ni1984   1.888       .  S
O1978     Ni1979   1.960       .  S
Ni1979     O1983   1.921       .  S
Ni1979     O1981   1.934   1_554  S
O1980     Ni1985   1.944   1_556  S
C1982      O1983   1.271       .  A
C1982      C2905   1.489       .  S
O1987     Ni1993   1.907       .  S
O1987      C2008   1.266       .  A
O1988     Ni2011   1.945       .  S
O1988      C1997   1.278       .  A
O1989     Ni1993   1.886       .  S
O1989     Ni2011   1.905       .  S
O1989     Ni2005   1.927       .  S
O1989      H2012   0.966       .  S
C1990      O2007   1.285       .  A
C1990      O1999   1.280       .  A
C1990      C2812   1.486       .  S
O1991     Ni2010   1.909       .  S
O1991      C1997   1.266       .  A
O1992     Ni2010   1.893       .  S
O1992      C1994   1.265       .  A
Ni1993     O1996   1.909       .  S
Ni1993     O1998   1.902       .  S
C1994      O2004   1.277       .  A
C1994      C2824   1.502       .  S
O1995     Ni2011   1.944       .  S
O1995      C2001   1.283       .  A
O1996      C2001   1.277       .  A
C1997      C2845   1.503       .  S
O1998      C2000   1.267       .  A
O1999     Ni2010   1.911       .  S
C2000      O2006   1.283       .  A
C2000      C2833   1.497       .  S
C2001      C2857   1.476       .  S
H2002      O2003   0.966       .  S
O2003     Ni2011   1.924       .  S
O2003     Ni2005   1.901       .  S
O2003     Ni2010   1.882       .  S
O2004     Ni2005   1.955       .  S
Ni2005     O2009   1.931       .  S
Ni2005     O2007   1.933       .  S
O2006     Ni2011   1.967       .  S
C2008      O2009   1.274       .  A
C2008      C2797   1.479       .  S
N2013      H2045   1.044       .  S
N2013      C2998   1.348   1_545  A
N2013      C2017   1.351       .  A
N2014      C2021   1.345       .  A
N2014      C2022   1.345       .  A
N2015      H2046   1.044       .  S
N2015      C3000   1.350   1_545  A
N2015      C2019   1.348       .  A
N2016      C2023   1.344       .  A
N2016      C2024   1.345       .  A
C2017      C2025   1.388       .  A
C2017      C2033   1.414       .  A
C2018      N2993   1.348       .  A
C2018      C2034   1.413       .  A
C2018      C2026   1.388       .  A
C2019      C2027   1.387       .  A
C2019      C2036   1.411       .  A
C2020      N2995   1.350       .  A
C2020      C2035   1.412       .  A
C2020      C2028   1.387       .  A
C2021      C2033   1.408       .  A
C2021      C2029   1.386       .  A
C2022      C2036   1.408       .  A
C2022      C2030   1.387       .  A
C2023      C2031   1.387       .  A
C2023      C2034   1.407       .  A
C2024      C2032   1.387       .  A
C2024      C2035   1.409       .  A
C2025      C3006   1.378   1_545  A
C2025      H2037   1.082       .  S
C2026      C3005   1.378       .  A
C2026      H2038   1.082       .  S
C2027      C3008   1.379   1_545  A
C2027      H2039   1.082       .  S
C2028      C3007   1.379       .  A
C2028      H2040   1.082       .  S
C2029      C2030   1.381       .  A
C2029      H2041   1.082       .  S
C2030      H2042   1.082       .  S
C2031      C2032   1.380       .  A
C2031      H2043   1.082       .  S
C2032      H2044   1.082       .  S
C2033      C2773   1.495       .  S
C2034      C2788   1.489       .  S
C2035      C2764   1.496       .  S
C2036      C2749   1.489       .  S
N2047      H2079   1.040       .  S
N2047      C2052   1.355       .  A
N2047      C2051   1.355       .  A
N2048      C2055   1.350       .  A
N2048      C2056   1.352       .  A
N2049      H2080   1.033       .  S
N2049      C2054   1.354       .  A
N2049      C2053   1.355       .  A
N2050      C2057   1.352       .  A
N2050      C2058   1.352       .  A
C2051      C2059   1.388       .  A
C2051      C2067   1.422       .  A
C2052      C2068   1.414       .  A
C2052      C2060   1.385       .  A
C2053      C2061   1.388       .  A
C2053      C2070   1.423       .  A
C2054      C2069   1.418       .  A
C2054      C2062   1.387       .  A
C2055      C2067   1.418       .  A
C2055      C2063   1.387       .  A
C2056      C2070   1.415       .  A
C2056      C2064   1.385       .  A
C2057      C2065   1.386       .  A
C2057      C2068   1.414       .  A
C2058      C2066   1.386       .  A
C2058      C2069   1.416       .  A
C2059      C2060   1.375       .  A
C2059      H2071   1.082       .  S
C2060      H2072   1.081       .  S
C2061      C2062   1.371       .  A
C2061      H2073   1.082       .  S
C2062      H2074   1.082       .  S
C2063      C2064   1.370       .  A
C2063      H2075   1.082       .  S
C2064      H2076   1.079       .  S
C2065      C2066   1.371       .  A
C2065      H2077   1.083       .  S
C2066      H2078   1.081       .  S
C2067      C2728   1.503       .  S
C2068      C2740   1.490       .  S
C2069      C2701   1.488       .  S
C2070      C2713   1.499       .  S
N2081      H2113   1.041       .  S
N2081      C2086   1.356       .  A
N2082      C2089   1.352       .  A
N2082      C2090   1.353       .  A
N2083      H2114   1.040       .  S
N2083      C2088   1.351       .  A
N2084      C2091   1.353       .  A
N2084      C2092   1.350       .  A
C2085      C2093   1.385   1_655  A
C2085      C2101   1.413       .  A
C2086      C2102   1.423       .  A
C2086      C2094   1.389       .  A
C2087      C2095   1.388       .  A
C2087      C2104   1.414       .  A
C2088      C2103   1.411       .  A
C2088      C2096   1.387       .  A
C2089      C2101   1.415       .  A
C2089      C2097   1.387       .  A
C2090      C2104   1.417       .  A
C2090      C2098   1.386       .  A
C2091      C2099   1.388       .  A
C2091      C2102   1.419       .  A
C2092      C2100   1.384       .  A
C2092      C2103   1.411       .  A
C2093      H2105   1.082   1_455  S
C2094      H2106   1.082       .  S
C2095      H2107   1.082       .  S
C2096      H2108   1.082       .  S
C2097      C2098   1.379       .  A
C2097      H2109   1.082       .  S
C2098      H2110   1.083       .  S
C2099      C2100   1.376       .  A
C2099      H2111   1.082       .  S
C2100      H2112   1.080       .  S
C2101      C2653   1.491       .  S
C2102      C2668   1.515       .  S
C2103      C2677   1.487       .  S
C2104      C2689   1.494       .  S
C2115      C2800   1.477       .  S
C2115      C2120   1.396       .  A
C2116      C2641   1.484       .  S
C2116      C2117   1.404       .  A
C2117      C2118   1.404       .  A
C2117      H2122   1.084       .  S
C2118      C2737   1.494       .  S
C2119      C2776   1.485       .  S
C2119      C2120   1.401       .  A
C2120      H2121   1.085       .  S
C2123      C2821   1.486       .  S
C2123      C3104   1.424   1_545  A
C2123      C2128   1.407       .  A
C2124      C2632   1.488       .  S
C2124      C3103   1.424       .  A
C2124      C2125   1.402       .  A
C2125      C2126   1.395       .  A
C2125      H2130   1.085       .  S
C2126      C2680   1.484       .  S
C2126      C3107   1.416       .  A
C2127      C2725   1.491       .  S
C2127      C3106   1.416   1_545  A
C2127      C2128   1.401       .  A
C2128      H2129   1.085       .  S
C2131      C2932   1.491       .  S
C2131      C2132   1.422       .  A
C2131      C2136   1.409       .  A
C2132      C2617   1.496       .  S
C2132      C2133   1.400       .  A
C2133      C2134   1.402       .  A
C2133      H2138   1.085       .  S
C2134      C2761   1.488       .  S
C2134      C2135   1.417       .  A
C2135      C2656   1.494       .  S
C2135      C2136   1.405       .  A
C2136      H2137   1.084       .  S
C2139      C2605   1.481       .  S
C2139      C2140   1.410       .  A
C2139      C2144   1.392       .  A
C2140      C2860   1.486       .  S
C2140      C2141   1.411       .  A
C2141      C2142   1.407       .  A
C2141      H2146   1.084       .  S
C2142      C2692   1.495       .  S
C2142      C2143   1.422       .  A
C2143      C2785   1.490       .  S
C2143      C2144   1.401       .  A
C2144      H2145   1.085       .  S
C2147      C2872   1.499       .  S
C2147      C3128   1.419   1_545  A
C2147      C2152   1.409       .  A
C2148      C2593   1.490       .  S
C2148      C3127   1.419       .  A
C2148      C2149   1.409       .  A
C2149      C2150   1.404       .  A
C2149      H2154   1.085       .  S
C2150      C2665   1.493       .  S
C2150      C3131   1.425       .  A
C2151      C2716   1.505       .  S
C2151      C3130   1.425   1_545  A
C2151      C2152   1.406       .  A
C2152      H2153   1.084       .  S
C2155      C2584   1.484       .  S
C2155      C2160   1.404       .  A
C2156      C2896   1.480       .  S
C2156      C2157   1.402       .  A
C2157      C2158   1.398       .  A
C2157      H2162   1.085       .  S
C2158      C2752   1.488       .  S
C2159      C2704   1.487       .  S
C2159      C2160   1.403       .  A
C2160      H2161   1.085       .  S
O2163     Ni2169   1.920       .  S
O2163      C2184   1.270       .  A
O2164     Ni2187   1.932       .  S
O2164      C2173   1.276       .  A
O2165     Ni2169   1.883       .  S
O2165     Ni2187   1.899       .  S
O2165     Ni2181   1.912       .  S
O2165      H2188   0.966       .  S
C2166      O2183   1.279       .  A
C2166      O2175   1.278       .  A
C2166      C2644   1.474       .  S
O2167     Ni2186   1.908       .  S
O2167      C2173   1.264       .  A
O2168     Ni2186   1.898       .  S
O2168      C2170   1.264       .  A
Ni2169     O2172   1.910       .  S
Ni2169     O2174   1.893       .  S
C2170      O2180   1.276       .  A
C2170      C2545   1.487       .  S
O2171     Ni2187   1.934       .  S
O2171      C2177   1.285       .  A
O2172      C2177   1.279       .  A
C2173      C2608   1.487       .  S
O2174      C2176   1.266       .  A
O2175     Ni2186   1.919       .  S
C2176      O2182   1.282       .  A
C2176      C2629   1.501       .  S
C2177      C2569   1.481       .  S
H2178      O2179   0.967       .  S
O2179     Ni2187   1.930       .  S
O2179     Ni2181   1.899       .  S
O2179     Ni2186   1.903       .  S
O2180     Ni2181   1.947       .  S
Ni2181     O2185   1.916       .  S
Ni2181     O2183   1.928       .  S
O2182     Ni2187   1.957       .  S
C2184      O2185   1.270       .  A
C2184      C2557   1.485       .  S
O2189     Ni2195   1.916       .  S
O2189      C2210   1.268       .  A
O2190     Ni2213   1.917       .  S
O2190      C2199   1.272       .  A
O2191     Ni2195   1.885       .  S
O2191     Ni2213   1.895   1_554  S
O2191     Ni2207   1.921   1_554  S
O2191      H2214   0.964       .  S
C2192      O2209   1.285       .  A
C2192      O2201   1.278       .  A
C2192      C2581   1.486       .  S
O2193     Ni2212   1.943       .  S
O2193      C2199   1.275       .  A
O2194     Ni2212   1.897       .  S
O2194      C2196   1.268   1_556  A
Ni2195     O2198   1.919       .  S
Ni2195     O2200   1.910       .  S
C2196      O2206   1.278       .  A
C2196      C2521   1.491       .  S
O2197     Ni2213   1.927   1_554  S
O2197      C2203   1.276       .  A
O2198      C2203   1.278       .  A
C2199      C2596   1.497       .  S
O2200      C2202   1.268   1_554  A
O2201     Ni2212   1.921       .  S
C2202      O2208   1.276       .  A
C2202      C2620   1.491       .  S
C2203      C2533   1.468       .  S
H2204      O2205   0.958       .  S
O2205     Ni2213   1.903       .  S
O2205     Ni2207   1.918       .  S
O2205     Ni2212   1.890       .  S
O2206     Ni2207   1.954   1_554  S
Ni2207     O2211   1.949   1_556  S
Ni2207     O2209   1.936       .  S
O2208     Ni2213   1.941       .  S
C2210      O2211   1.283       .  A
C2210      C2509   1.502       .  S
N2215      H2247   1.036       .  S
N2215      C2219   1.361       .  A
N2216      C2223   1.348       .  A
N2216      C2224   1.351       .  A
N2217      H2248   1.041       .  S
N2217      C2221   1.347       .  A
N2218      C2225   1.353       .  A
N2218      C2226   1.356       .  A
C2219      C2227   1.384       .  A
C2219      C2235   1.429       .  A
C2220      C2236   1.434       .  A
C2220      C2228   1.391       .  A
C2221      C2229   1.385       .  A
C2221      C2238   1.402       .  A
C2222      C2237   1.406       .  A
C2222      C2230   1.387       .  A
C2223      C2235   1.413       .  A
C2223      C2231   1.388       .  A
C2224      C2238   1.407       .  A
C2224      C2232   1.382       .  A
C2225      C2233   1.392       .  A
C2225      C2236   1.427       .  A
C2226      C2234   1.381       .  A
C2226      C2237   1.416       .  A
C2227      H2239   1.082       .  S
C2228      H2240   1.079       .  S
C2229      H2241   1.082       .  S
C2230      H2242   1.083       .  S
C2231      C2232   1.372       .  A
C2231      H2243   1.082       .  S
C2232      H2244   1.079       .  S
C2233      C2234   1.361       .  A
C2233      H2245   1.077       .  S
C2234      H2246   1.080       .  S
C2235      C2476   1.505       .  S
C2236      C2497   1.505       .  S
C2237      C2488   1.497       .  S
C2238      C2461   1.479       .  S
N2249      H2281   1.041       .  S
N2249      C2254   1.352       .  A
N2249      C2253   1.352       .  A
N2250      C2257   1.353       .  A
N2250      C2258   1.349       .  A
N2251      H2282   1.038       .  S
N2251      C2256   1.356       .  A
N2251      C2255   1.354       .  A
N2252      C2259   1.347       .  A
N2252      C2260   1.348       .  A
C2253      C2261   1.386       .  A
C2253      C2269   1.413       .  A
C2254      C2270   1.408       .  A
C2254      C2262   1.386       .  A
C2255      C2263   1.388       .  A
C2255      C2272   1.419       .  A
C2256      C2271   1.413       .  A
C2256      C2264   1.385       .  A
C2257      C2269   1.414       .  A
C2257      C2265   1.383       .  A
C2258      C2272   1.422       .  A
C2258      C2266   1.389       .  A
C2259      C2267   1.384       .  A
C2259      C2270   1.407       .  A
C2260      C2268   1.386       .  A
C2260      C2271   1.409       .  A
C2261      C2262   1.364       .  A
C2261      H2273   1.080       .  S
C2262      H2274   1.080       .  S
C2263      C2264   1.371       .  A
C2263      H2275   1.082       .  S
C2264      H2276   1.082       .  S
C2265      C2266   1.363       .  A
C2265      H2277   1.079       .  S
C2266      H2278   1.078       .  S
C2267      C2268   1.372       .  A
C2267      H2279   1.082       .  S
C2268      H2280   1.082       .  S
C2269      C2437   1.499       .  S
C2270      C2416   1.478       .  S
C2271      C2425   1.486       .  S
C2272      C2449   1.493       .  S
C2283      C2572   1.484       .  S
C2283      C3264   1.410       .  A
C2283      C2288   1.402       .  A
C2284      C2809   1.472       .  S
C2284      C3263   1.410   1_545  A
C2284      C2285   1.397       .  A
C2285      C2286   1.394       .  A
C2285      H2290   1.086       .  S
C2286      C2464   1.485       .  S
C2286      C3267   1.422   1_545  A
C2287      C2440   1.490       .  S
C2287      C3266   1.422       .  A
C2287      C2288   1.404       .  A
C2288      H2289   1.084       .  S
N2291      H2323   1.039       .  S
N2291      C2296   1.365       .  A
N2291      C3275   1.361       .  A
N2292      C2299   1.358       .  A
N2292      C2300   1.360       .  A
N2293      H2324   1.042       .  S
N2293      C2298   1.354       .  A
N2293      C3277   1.353       .  A
N2294      C2301   1.349       .  A
N2294      C2302   1.351       .  A
C2295      N3271   1.361   1_545  A
C2295      C2303   1.388       .  A
C2295      C2311   1.435       .  A
C2296      C2312   1.436       .  A
C2296      C2304   1.387       .  A
C2297      N3273   1.353   1_545  A
C2297      C2305   1.387       .  A
C2297      C2314   1.411       .  A
C2298      C2313   1.416       .  A
C2298      C2306   1.386       .  A
C2299      C2311   1.429       .  A
C2299      C2307   1.389       .  A
C2300      C2314   1.424       .  A
C2300      C2308   1.383       .  A
C2301      C2309   1.388       .  A
C2301      C2312   1.416       .  A
C2302      C2310   1.386       .  A
C2302      C2313   1.414       .  A
C2303      C3284   1.376   1_545  A
C2303      H2315   1.079       .  S
C2304      C3283   1.376       .  A
C2304      H2316   1.080       .  S
C2305      C3286   1.371   1_545  A
C2305      H2317   1.079       .  S
C2306      C3285   1.371       .  A
C2306      H2318   1.080       .  S
C2307      C2308   1.377       .  A
C2307      H2319   1.081       .  S
C2308      H2320   1.080       .  S
C2309      C2310   1.379       .  A
C2309      H2321   1.082       .  S
C2310      H2322   1.082       .  S
C2311      C2389   1.517       .  S
C2312      C2368   1.523       .  S
C2313      C2377   1.504       .  S
C2314      C2404   1.506       .  S
C2325      C2536   1.473       .  S
C2325      C3306   1.406       .  A
C2325      C2330   1.395       .  A
C2326      C2908   1.477       .  S
C2326      C3305   1.406   1_545  A
C2326      C2327   1.408       .  A
C2327      C2328   1.404       .  A
C2327      H2332   1.085       .  S
C2328      C2473   1.499       .  S
C2328      C3309   1.423   1_545  A
C2329      C2452   1.474       .  S
C2329      C3308   1.423       .  A
C2329      C2330   1.393       .  A
C2330      H2331   1.086       .  S
C2333      C2848   1.495       .  S
C2333      C2334   1.418       .  A
C2333      C2338   1.418       .  A
C2334      C2548   1.494       .  S
C2334      C2335   1.400       .  A
C2335      C2336   1.400       .  A
C2335      H2340   1.086       .  S
C2336      C2485   1.474       .  S
C2336      C2337   1.423       .  A
C2337      C2392   1.522       .  S
C2337      C2338   1.413       .  A
C2338      H2339   1.084       .  S
C2341      C2884   1.494       .  S
C2341      C2342   1.416       .  A
C2341      C2346   1.409       .  A
C2342      C2512   1.492       .  S
C2342      C2343   1.403       .  A
C2343      C2344   1.408       .  A
C2343      H2348   1.082       .  S
C2344      C2500   1.508       .  S
C2344      C2345   1.433       .  A
C2345      C2401   1.508       .  S
C2345      C2346   1.410       .  A
C2346      H2347   1.084       .  S
C2349      C2836   1.498       .  S
C2349      C2354   1.397       .  A
C2350      C2560   1.477       .  S
C2350      C2351   1.411       .  A
C2351      C2352   1.405       .  A
C2351      H2356   1.084       .  S
C2352      C2365   1.513       .  S
C2353      C2413   1.488       .  S
C2353      C2354   1.410       .  A
C2354      H2355   1.084       .  S
C2357      C2524   1.488       .  S
C2357      C2362   1.412       .  A
C2358      C2920   1.487   1_455  S
C2358      C2359   1.400   1_455  A
C2359      C2360   1.395   1_655  A
C2359      H2364   1.086       .  S
C2360      C2428   1.486   1_455  S
C2361      C2380   1.495       .  S
C2361      C2362   1.408       .  A
C2362      H2363   1.084       .  S
C2365      C2366   1.407       .  A
C2365      C2370   1.416       .  A
C2366      C2367   1.409       .  A
C2367      C2368   1.422       .  A
C2367      C2374   1.443       .  S
C2368      C2369   1.408       .  A
C2369      C2370   1.409       .  A
C2369      H2372   1.084       .  S
C2370      C2373   1.443       .  S
C2373      N2375   1.157       .  T
C2377      C2378   1.406       .  A
C2377      C2382   1.418       .  A
C2378      C2379   1.400       .  A
C2378      H2383   1.083       .  S
C2379      C2380   1.413       .  A
C2380      C2381   1.405       .  A
C2381      C2382   1.402       .  A
C2381      H2384   1.085       .  S
C2382      C2385   1.445       .  S
C2385      N2387   1.157       .  T
C2386      N2388   1.157       .  T
C2389      C2390   1.408       .  A
C2389      C2394   1.413       .  A
C2390      C2391   1.412       .  A
C2390      H2395   1.084       .  S
C2391      C2392   1.418       .  A
C2391      C2398   1.442       .  S
C2392      C2393   1.410       .  A
C2393      C2394   1.408       .  A
C2393      H2396   1.074       .  S
C2394      C2397   1.445       .  S
C2397      N2399   1.157       .  T
C2398      N2400   1.157       .  T
C2401      C2402   1.408       .  A
C2401      C2406   1.416       .  A
C2402      C2403   1.405       .  A
C2402      H2407   1.084       .  S
C2403      C2404   1.414       .  A
C2403      C2410   1.443       .  S
C2404      C2405   1.408       .  A
C2405      C2406   1.408       .  A
C2405      H2408   1.084       .  S
C2406      C2409   1.444       .  S
C2409      N2411   1.157       .  T
C2410      N2412   1.157       .  T
C2413      C2414   1.407       .  A
C2413      C2418   1.417       .  A
C2414      C2415   1.396       .  A
C2415      C2416   1.407       .  A
C2415      C2422   1.444       .  S
C2416      C2417   1.398       .  A
C2417      C2418   1.393       .  A
C2417      H2420   1.085       .  S
C2418      C2421   1.445       .  S
C2421      N2423   1.157       .  T
C2425      C2426   1.404       .  A
C2425      C2430   1.407       .  A
C2426      C2427   1.401       .  A
C2426      H2431   1.085       .  S
C2427      C2428   1.410       .  A
C2427      C2434   1.443   1_655  S
C2428      C2429   1.406       .  A
C2429      C2430   1.397       .  A
C2429      H2432   1.084       .  S
C2430      C2433   1.443       .  S
C2433      N2435   1.157       .  T
C2434      N2436   1.157       .  T
C2437      C2438   1.403       .  A
C2437      C2442   1.416       .  A
C2438      C2439   1.394       .  A
C2438      H2443   1.079       .  S
C2439      C2440   1.410       .  A
C2439      C3426   1.443       .  S
C2440      C2441   1.405       .  A
C2441      C2442   1.397       .  A
C2441      H2444   1.084       .  S
C2442      C2445   1.445       .  S
C2445      N2447   1.157       .  T
C2446      C3419   1.443       .  S
C2446      N2448   1.157   1_565  T
C2449      C2450   1.406       .  A
C2449      C2454   1.413       .  A
C2450      C2451   1.392       .  A
C2450      H2455   1.084       .  S
C2451      C2452   1.405       .  A
C2451      C2458   1.444       .  S
C2452      C2453   1.403       .  A
C2453      C2454   1.400       .  A
C2453      H2456   1.084       .  S
C2454      C2457   1.445       .  S
C2457      N2459   1.157       .  T
C2458      N2460   1.157       .  T
C2461      C2462   1.404       .  A
C2461      C2466   1.405       .  A
C2462      C2463   1.399       .  A
C2462      H2467   1.085       .  S
C2463      C2464   1.410       .  A
C2463      C3450   1.443       .  S
C2464      C2465   1.408       .  A
C2465      C2466   1.397       .  A
C2465      H2468   1.085       .  S
C2466      C2469   1.444       .  S
C2469      N2471   1.157       .  T
C2470      C3443   1.443       .  S
C2470      N2472   1.157       .  T
C2473      C2474   1.403       .  A
C2473      C2478   1.413       .  A
C2474      C2475   1.399       .  A
C2474      H2479   1.072       .  S
C2475      C2476   1.410       .  A
C2475      C2482   1.444       .  S
C2476      C2477   1.410       .  A
C2477      C2478   1.406       .  A
C2477      H2480   1.085       .  S
C2478      C2481   1.443       .  S
C2481      N3463   1.157       .  T
C2482      N2484   1.157       .  T
N2483      C3461   1.157       .  T
C2485      C2486   1.403       .  A
C2485      C2490   1.404       .  A
C2486      C2487   1.402       .  A
C2486      H2491   1.084       .  S
C2487      C2488   1.414       .  A
C2487      C2494   1.445       .  S
C2488      C2489   1.408       .  A
C2489      C2490   1.391       .  A
C2489      H2492   1.084       .  S
C2490      C2493   1.445       .  S
C2493      N2495   1.157       .  T
C2494      N2496   1.157       .  T
C2497      C2498   1.407       .  A
C2497      C2502   1.414       .  A
C2498      C2499   1.395       .  A
C2498      H2503   1.084       .  S
C2499      C2500   1.407       .  A
C2499      C2506   1.443       .  S
C2500      C2501   1.413       .  A
C2501      C2502   1.404       .  A
C2501      H2504   1.082       .  S
C2502      C2505   1.445       .  S
C2505      N2507   1.157       .  T
C2506      N2508   1.158       .  T
C2509      C2510   1.405       .  A
C2509      C2514   1.427       .  A
C2510      C2511   1.408       .  A
C2510      H2515   1.084       .  S
C2511      C2512   1.416       .  A
C2511      C2518   1.444       .  S
C2512      C2513   1.397       .  A
C2513      C2514   1.405       .  A
C2513      H2516   1.085       .  S
C2514      C2517   1.445       .  S
C2517      N2519   1.157       .  T
C2518      N2520   1.157       .  T
C2521      C2522   1.410       .  A
C2521      C2526   1.416       .  A
C2522      C2523   1.412       .  A
C2522      H2527   1.084       .  S
C2523      C2524   1.413       .  A
C2523      C2530   1.443       .  S
C2524      C2525   1.401       .  A
C2525      C2526   1.395       .  A
C2525      H2528   1.086       .  S
C2526      C2529   1.445       .  S
C2529      N2531   1.157       .  T
C2530      N2532   1.157       .  T
C2533      C2534   1.401       .  A
C2533      C2538   1.409       .  A
C2534      C2535   1.401       .  A
C2534      H2539   1.085       .  S
C2535      C2536   1.411       .  A
C2535      C2542   1.444       .  S
C2536      C2537   1.400       .  A
C2537      C2538   1.397       .  A
C2537      H2540   1.084       .  S
C2538      C2541   1.444       .  S
C2541      N2543   1.157       .  T
C2542      N2544   1.157       .  T
C2545      C2546   1.406       .  A
C2545      C2550   1.410       .  A
C2546      C2547   1.403       .  A
C2546      H2551   1.085       .  S
C2547      C2548   1.414       .  A
C2547      C2554   1.442       .  S
C2548      C2549   1.408       .  A
C2549      C2550   1.405       .  A
C2549      H2552   1.085       .  S
C2550      C2553   1.442       .  S
C2553      N2555   1.157       .  T
C2554      N2556   1.157       .  T
C2557      C2558   1.406       .  A
C2557      C2562   1.415       .  A
C2558      C2559   1.396       .  A
C2558      H2563   1.085       .  S
C2559      C2560   1.409       .  A
C2559      C2566   1.445       .  S
C2560      C2561   1.403       .  A
C2561      C2562   1.405       .  A
C2561      H2564   1.085       .  S
C2562      C2565   1.444       .  S
C2565      N2567   1.157       .  T
C2569      C2570   1.401       .  A
C2569      C2574   1.418       .  A
C2570      C2571   1.400       .  A
C2570      H2575   1.085       .  S
C2571      C2572   1.415       .  A
C2571      C2578   1.444       .  S
C2572      C2573   1.400       .  A
C2573      C2574   1.399       .  A
C2573      H2576   1.083       .  S
C2574      C2577   1.446       .  S
C2577      N2579   1.157       .  T
C2578      N2580   1.157       .  T
C2581      C2582   1.408       .  A
C2581      C2586   1.417       .  A
C2582      C2583   1.412       .  A
C2582      H2587   1.084       .  S
C2583      C2584   1.412       .  A
C2584      C2585   1.398       .  A
C2585      C2586   1.392       .  A
C2585      H2588   1.086       .  S
C2586      C2589   1.446       .  S
C2589      N2591   1.157       .  T
C2590      N2592   1.157       .  T
C2593      C2594   1.406       .  A
C2593      C2598   1.408       .  A
C2594      C2595   1.408       .  A
C2594      H2599   1.085       .  S
C2595      C2596   1.416       .  A
C2595      C2602   1.444       .  S
C2596      C2597   1.410       .  A
C2597      C2598   1.404       .  A
C2597      H2600   1.085       .  S
C2598      C2601   1.444       .  S
C2601      N2603   1.157       .  T
C2602      N2604   1.157       .  T
C2605      C2606   1.394       .  A
C2605      C2610   1.416       .  A
C2606      C2607   1.396       .  A
C2606      H2611   1.085       .  S
C2607      C2608   1.424       .  A
C2607      C2614   1.445       .  S
C2608      C2609   1.403       .  A
C2609      C2610   1.402       .  A
C2609      H2612   1.085       .  S
C2610      C2613   1.445       .  S
C2613      N2615   1.157       .  T
C2614      N2616   1.157       .  T
C2617      C2618   1.409       .  A
C2617      C2622   1.411       .  A
C2618      C2619   1.405       .  A
C2618      H2623   1.085       .  S
C2619      C2620   1.412       .  A
C2619      C2626   1.444       .  S
C2620      C2621   1.409       .  A
C2621      C2622   1.404       .  A
C2621      H2624   1.085       .  S
C2622      C2625   1.443       .  S
C2625      N2627   1.157       .  T
C2626      N2628   1.157       .  T
C2629      C2630   1.410       .  A
C2629      C2634   1.417       .  A
C2630      C2631   1.401       .  A
C2630      H2635   1.085       .  S
C2631      C2632   1.411       .  A
C2631      C2638   1.445       .  S
C2632      C2633   1.406       .  A
C2633      C2634   1.411       .  A
C2633      H2636   1.085       .  S
C2634      C2637   1.443       .  S
C2637      N2639   1.157       .  T
C2638      N2640   1.157       .  T
C2641      C2642   1.404       .  A
C2641      C2646   1.411       .  A
C2642      C2643   1.401       .  A
C2642      H2647   1.084       .  S
C2643      C2644   1.409       .  A
C2643      C2650   1.443       .  S
C2644      C2645   1.403       .  A
C2645      C2646   1.400       .  A
C2645      H2648   1.085       .  S
C2646      C2649   1.445       .  S
C2649      N2651   1.157       .  T
C2650      N2652   1.157       .  T
C2653      C2654   1.402       .  A
C2653      C2658   1.411       .  A
C2654      C2655   1.404       .  A
C2654      H2659   1.084       .  S
C2655      C2656   1.416       .  A
C2655      C2662   1.445       .  S
C2656      C2657   1.405       .  A
C2657      C2658   1.402       .  A
C2657      H2660   1.085       .  S
C2658      C2661   1.444       .  S
C2661      N2663   1.157       .  T
C2662      N2664   1.157       .  T
C2665      C2666   1.403       .  A
C2665      C2670   1.409       .  A
C2666      C2667   1.410       .  A
C2666      H2671   1.084       .  S
C2667      C2668   1.422       .  A
C2667      C2674   1.445       .  S
C2668      C2669   1.409       .  A
C2669      C2670   1.397       .  A
C2669      H2672   1.083       .  S
C2670      C3653   1.446       .  S
C2673      C3650   1.446       .  S
C2673      N2675   1.157       .  T
C2674      N2676   1.158       .  T
C2677      C2678   1.405       .  A
C2677      C2682   1.410       .  A
C2678      C2679   1.401       .  A
C2678      H2683   1.085       .  S
C2679      C2680   1.412       .  A
C2679      C3666   1.445       .  S
C2680      C2681   1.402       .  A
C2681      C2682   1.397       .  A
C2681      H2684   1.085       .  S
C2682      C2685   1.443       .  S
C2685      N2687   1.157       .  T
C2686      C3659   1.445   1_545  S
C2686      N2688   1.157       .  T
C2689      C2690   1.404       .  A
C2689      C2694   1.410       .  A
C2690      C2691   1.403       .  A
C2690      H2695   1.084       .  S
C2691      C2692   1.413       .  A
C2691      C2698   1.444       .  S
C2692      C2693   1.407       .  A
C2693      C2694   1.404       .  A
C2693      H2696   1.084       .  S
C2694      C2697   1.443       .  S
C2697      N2699   1.157       .  T
C2698      N2700   1.157       .  T
C2701      C2702   1.401       .  A
C2701      C2706   1.412       .  A
C2702      C2703   1.397       .  A
C2702      H2707   1.085       .  S
C2703      C2704   1.412       .  A
C2703      C2710   1.444       .  S
C2704      C2705   1.405       .  A
C2705      C2706   1.401       .  A
C2709      N2711   1.157       .  T
C2710      N2712   1.157       .  T
C2713      C2714   1.407       .  A
C2713      C2718   1.410       .  A
C2714      C2715   1.409       .  A
C2714      H2719   1.084       .  S
C2715      C2716   1.420       .  A
C2715      C2722   1.444       .  S
C2716      C2717   1.401       .  A
C2717      C2718   1.391       .  A
C2717      H2720   1.070       .  S
C2718      C2721   1.447       .  S
C2721      N2723   1.157       .  T
C2722      N2724   1.157       .  T
C2725      C2726   1.405       .  A
C2725      C2730   1.409       .  A
C2726      C2727   1.402       .  A
C2726      H2731   1.084       .  S
C2727      C2728   1.415       .  A
C2727      C2734   1.444       .  S
C2728      C2729   1.407       .  A
C2729      C2730   1.395       .  A
C2729      H2732   1.082       .  S
C2730      C2733   1.444       .  S
C2733      N3715   1.157   1_545  T
C2734      N2736   1.157       .  T
N2735      C3713   1.157       .  T
C2737      C2738   1.407       .  A
C2737      C2742   1.415       .  A
C2738      C2739   1.401       .  A
C2738      H2743   1.084       .  S
C2739      C2740   1.411       .  A
C2739      C2746   1.443       .  S
C2740      C2741   1.402       .  A
C2741      C2742   1.398       .  A
C2741      H2744   1.085       .  S
C2742      C2745   1.445       .  S
C2745      N2747   1.157       .  T
C2746      N2748   1.157       .  T
C2749      C2750   1.405       .  A
C2749      C2754   1.413       .  A
C2750      C2751   1.397       .  A
C2750      H2755   1.085       .  S
C2751      C2752   1.414       .  A
C2751      C2758   1.445       .  S
C2752      C2753   1.403       .  A
C2753      C2754   1.396       .  A
C2754      C2757   1.443       .  S
C2758      N2760   1.157       .  T
C2761      C2762   1.404       .  A
C2761      C2766   1.412       .  A
C2762      C2763   1.395       .  A
C2762      H2767   1.085       .  S
C2763      C2764   1.415       .  A
C2763      C2770   1.445       .  S
C2764      C2765   1.408       .  A
C2765      C2766   1.399       .  A
C2765      H2768   1.084       .  S
C2766      C2769   1.443       .  S
C2769      N2771   1.157       .  T
C2770      N2772   1.157       .  T
C2773      C2774   1.408       .  A
C2773      C2778   1.413       .  A
C2774      C2775   1.398       .  A
C2774      H2779   1.082       .  S
C2775      C2776   1.410       .  A
C2776      C2777   1.403       .  A
C2777      C2778   1.394       .  A
C2777      H2780   1.085       .  S
C2778      C2781   1.442       .  S
C2781      N2783   1.156       .  T
C2782      N2784   1.157       .  T
C2785      C2786   1.407       .  A
C2785      C2790   1.413       .  A
C2786      C2787   1.390       .  A
C2786      H2791   1.084       .  S
C2787      C2788   1.409       .  A
C2787      C2794   1.443       .  S
C2788      C2789   1.407       .  A
C2789      C2790   1.397       .  A
C2789      H2792   1.084       .  S
C2790      C2793   1.442       .  S
C2793      N2795   1.157       .  T
C2794      N2796   1.156       .  T
C2797      C2798   1.403       .  A
C2797      C2802   1.417       .  A
C2798      C2799   1.404       .  A
C2798      H2803   1.084       .  S
C2799      C2800   1.411       .  A
C2799      C2806   1.444       .  S
C2800      C2801   1.397       .  A
C2801      C2802   1.398       .  A
C2801      H2804   1.085       .  S
C2802      C2805   1.445       .  S
C2805      N2807   1.157       .  T
C2806      N2808   1.157       .  T
C2809      C2810   1.399       .  A
C2809      C2814   1.409       .  A
C2810      C2811   1.404       .  A
C2810      H2815   1.084       .  S
C2811      C2812   1.418       .  A
C2811      C2818   1.442       .  S
C2812      C2813   1.407       .  A
C2813      C2814   1.391       .  A
C2813      H2816   1.085       .  S
C2814      C2817   1.448       .  S
C2817      N2819   1.157       .  T
C2818      N2820   1.157       .  T
C2821      C2822   1.405       .  A
C2821      C2826   1.411       .  A
C2822      C2823   1.410       .  A
C2822      H2827   1.085       .  S
C2823      C2824   1.418       .  A
C2823      C2830   1.442       .  S
C2824      C2825   1.411       .  A
C2825      C2826   1.400       .  A
C2825      H2828   1.085       .  S
C2826      C2829   1.445       .  S
C2829      N2831   1.157       .  T
C2830      N2832   1.157       .  T
C2833      C2834   1.405       .  A
C2833      C2838   1.419       .  A
C2834      C2835   1.412       .  A
C2834      H2839   1.084       .  S
C2835      C2836   1.416       .  A
C2835      C2842   1.443       .  S
C2836      C2837   1.401       .  A
C2837      C2838   1.406       .  A
C2837      H2840   1.083       .  S
C2838      C2841   1.444       .  S
C2841      N2843   1.157       .  T
C2842      N2844   1.157       .  T
C2845      C2846   1.412       .  A
C2845      C2850   1.416       .  A
C2846      C2847   1.395       .  A
C2846      H2851   1.084       .  S
C2847      C2848   1.407       .  A
C2847      C2854   1.445       .  S
C2848      C2849   1.411       .  A
C2849      C2850   1.415       .  A
C2849      H2852   1.084       .  S
C2850      C2853   1.443       .  S
C2853      N2855   1.157       .  T
C2854      N2856   1.157       .  T
C2857      C2858   1.402       .  A
C2857      C2862   1.411       .  A
C2858      C2859   1.396       .  A
C2858      H2863   1.085       .  S
C2859      C2860   1.410       .  A
C2859      C2866   1.445       .  S
C2860      C2861   1.406       .  A
C2861      C2862   1.408       .  A
C2861      H2864   1.084       .  S
C2862      C2865   1.442       .  S
C2865      N2867   1.157       .  T
C2866      N2868   1.157       .  T
C2869      C2870   1.399       .  A
C2869      C2874   1.414       .  A
C2870      C2871   1.399       .  A
C2870      H2875   1.083       .  S
C2871      C2872   1.417       .  A
C2871      C2878   1.445       .  S
C2872      C2873   1.408       .  A
C2873      C2874   1.412       .  A
C2873      H2876   1.084       .  S
C2874      C2877   1.443       .  S
C2877      N2879   1.157       .  T
C2878      N2880   1.157       .  T
C2881      C2882   1.403       .  A
C2881      C2886   1.423       .  A
C2882      C2883   1.407       .  A
C2882      H2887   1.084       .  S
C2883      C2884   1.415       .  A
C2883      C2890   1.443       .  S
C2884      C2885   1.399       .  A
C2885      C2886   1.406       .  A
C2885      H2888   1.085       .  S
C2886      C2889   1.444       .  S
C2889      N2891   1.157   1_554  T
C2890      N2892   1.157       .  T
C2893      C2894   1.407       .  A
C2893      C2898   1.414       .  A
C2894      C2895   1.409       .  A
C2894      H2899   1.084       .  S
C2895      C2896   1.411       .  A
C2895      C2902   1.442       .  S
C2896      C2897   1.399       .  A
C2897      C2898   1.391       .  A
C2897      H2900   1.086       .  S
C2898      C2901   1.445       .  S
C2901      N2903   1.157       .  T
C2902      N2904   1.157       .  T
C2905      C2906   1.408       .  A
C2905      C2910   1.423       .  A
C2906      C2907   1.405       .  A
C2906      H2911   1.084       .  S
C2907      C2908   1.409       .  A
C2907      C2914   1.442       .  S
C2908      C2909   1.395       .  A
C2909      C2910   1.391       .  A
C2909      H2912   1.086       .  S
C2910      C2913   1.445       .  S
C2913      N2915   1.157       .  T
C2914      N3896   1.157       .  T
N2916      C3894   1.157       .  T
C2917      C2918   1.402       .  A
C2917      C2922   1.413       .  A
C2918      C2919   1.391       .  A
C2918      H2923   1.085       .  S
C2919      C2920   1.413       .  A
C2919      C2926   1.447       .  S
C2920      C2921   1.407       .  A
C2921      C2922   1.412       .  A
C2921      H2924   1.084       .  S
C2922      C2925   1.442       .  S
C2925      N2927   1.157   1_554  T
C2926      N2928   1.157       .  T
C2929      C2930   1.409       .  A
C2929      C2934   1.412       .  A
C2930      C2931   1.398       .  A
C2930      H2935   1.085       .  S
C2931      C2932   1.409       .  A
C2931      C2938   1.444       .  S
C2932      C2933   1.409       .  A
C2933      C2934   1.408       .  A
C2933      H2936   1.084       .  S
C2934      C2937   1.442       .  S
C2937      N2939   1.157       .  T
C2938      N2940   1.157       .  T
O2941     Ni2947   1.912       .  S
O2941      C2962   1.264       .  A
O2942     Ni2965   1.938   1_556  S
O2942      C2951   1.278       .  A
O2943     Ni2947   1.895       .  S
O2943     Ni2965   1.913       .  S
O2943     Ni2959   1.919       .  S
O2943      H2966   0.967       .  S
C2944      O2961   1.279       .  A
C2944      O2953   1.281       .  A
C2944      C3849   1.487       .  S
O2945     Ni2964   1.917       .  S
O2945      C2951   1.269       .  A
O2946     Ni2964   1.897       .  S
O2946      C2948   1.265   1_556  A
Ni2947     O2950   1.904       .  S
Ni2947     O2952   1.889       .  S
C2948      O2958   1.281       .  A
C2948      C3861   1.497       .  S
O2949     Ni2965   1.948       .  S
O2949      C2955   1.286       .  A
O2950      C2955   1.275       .  A
C2951      C3909   1.491       .  S
O2952      C2954   1.264   1_554  A
O2953     Ni2964   1.930       .  S
C2954      O2960   1.275       .  A
C2954      C3873   1.481       .  S
C2955      C3897   1.481       .  S
H2956      O2957   0.966       .  S
O2957     Ni2965   1.933   1_556  S
O2957     Ni2959   1.898   1_556  S
O2957     Ni2964   1.888       .  S
O2958     Ni2959   1.960       .  S
Ni2959     O2963   1.921       .  S
Ni2959     O2961   1.934   1_554  S
O2960     Ni2965   1.944   1_556  S
C2962      O2963   1.271       .  A
C2962      C3885   1.489       .  S
O2967     Ni2973   1.907       .  S
O2967      C2988   1.266       .  A
O2968     Ni2991   1.945       .  S
O2968      C2977   1.278       .  A
O2969     Ni2973   1.886       .  S
O2969     Ni2991   1.905       .  S
O2969     Ni2985   1.927       .  S
O2969      H2992   0.966       .  S
C2970      O2987   1.285       .  A
C2970      O2979   1.280       .  A
C2970      C3792   1.486       .  S
O2971     Ni2990   1.909       .  S
O2971      C2977   1.266       .  A
O2972     Ni2990   1.893       .  S
O2972      C2974   1.265       .  A
Ni2973     O2976   1.909       .  S
Ni2973     O2978   1.902       .  S
C2974      O2984   1.277       .  A
C2974      C3804   1.502       .  S
O2975     Ni2991   1.944       .  S
O2975      C2981   1.283       .  A
O2976      C2981   1.277       .  A
C2977      C3825   1.503       .  S
O2978      C2980   1.267       .  A
O2979     Ni2990   1.911       .  S
C2980      O2986   1.283       .  A
C2980      C3813   1.497       .  S
C2981      C3837   1.476       .  S
H2982      O2983   0.966       .  S
O2983     Ni2991   1.924       .  S
O2983     Ni2985   1.901       .  S
O2983     Ni2990   1.882       .  S
O2984     Ni2985   1.955       .  S
Ni2985     O2989   1.931       .  S
Ni2985     O2987   1.933       .  S
O2986     Ni2991   1.967       .  S
C2988      O2989   1.274       .  A
C2988      C3777   1.479       .  S
N2993      H3025   1.044       .  S
N2993      C2997   1.351       .  A
N2994      C3001   1.345       .  A
N2994      C3002   1.345       .  A
N2995      H3026   1.044       .  S
N2995      C2999   1.348       .  A
N2996      C3003   1.344       .  A
N2996      C3004   1.345       .  A
C2997      C3005   1.388       .  A
C2997      C3013   1.414       .  A
C2998      C3014   1.413       .  A
C2998      C3006   1.388       .  A
C2999      C3007   1.387       .  A
C2999      C3016   1.411       .  A
C3000      C3015   1.412       .  A
C3000      C3008   1.387       .  A
C3001      C3013   1.408       .  A
C3001      C3009   1.386       .  A
C3002      C3016   1.408       .  A
C3002      C3010   1.387       .  A
C3003      C3011   1.387       .  A
C3003      C3014   1.407       .  A
C3004      C3012   1.387       .  A
C3004      C3015   1.409       .  A
C3005      H3017   1.082       .  S
C3006      H3018   1.082       .  S
C3007      H3019   1.082       .  S
C3008      H3020   1.082       .  S
C3009      C3010   1.381       .  A
C3009      H3021   1.082       .  S
C3010      H3022   1.082       .  S
C3011      C3012   1.380       .  A
C3011      H3023   1.082       .  S
C3012      H3024   1.082       .  S
C3013      C3753   1.495       .  S
C3014      C3768   1.489       .  S
C3015      C3744   1.496       .  S
C3016      C3729   1.489       .  S
N3027      H3059   1.040       .  S
N3027      C3032   1.355       .  A
N3027      C3031   1.355       .  A
N3028      C3035   1.350       .  A
N3028      C3036   1.352       .  A
N3029      H3060   1.033       .  S
N3029      C3034   1.354       .  A
N3029      C3033   1.355       .  A
N3030      C3037   1.352       .  A
N3030      C3038   1.352       .  A
C3031      C3039   1.388       .  A
C3031      C3047   1.422       .  A
C3032      C3048   1.414       .  A
C3032      C3040   1.385       .  A
C3033      C3041   1.388       .  A
C3033      C3050   1.423       .  A
C3034      C3049   1.418       .  A
C3034      C3042   1.387       .  A
C3035      C3047   1.418       .  A
C3035      C3043   1.387       .  A
C3036      C3050   1.415       .  A
C3036      C3044   1.385       .  A
C3037      C3045   1.386       .  A
C3037      C3048   1.414       .  A
C3038      C3046   1.386       .  A
C3038      C3049   1.416       .  A
C3039      C3040   1.375       .  A
C3039      H3051   1.082       .  S
C3040      H3052   1.081       .  S
C3041      C3042   1.371       .  A
C3041      H3053   1.082       .  S
C3042      H3054   1.082       .  S
C3043      C3044   1.370       .  A
C3043      H3055   1.082       .  S
C3044      H3056   1.079       .  S
C3045      C3046   1.371       .  A
C3045      H3057   1.083       .  S
C3046      H3058   1.081       .  S
C3047      C3708   1.503       .  S
C3048      C3720   1.490       .  S
C3049      C3681   1.488       .  S
C3050      C3693   1.499       .  S
N3061      H3093   1.041       .  S
N3061      C3066   1.356       .  A
N3062      C3069   1.352       .  A
N3062      C3070   1.353       .  A
N3063      H3094   1.040       .  S
N3063      C3068   1.351       .  A
N3064      C3071   1.353       .  A
N3064      C3072   1.350       .  A
C3065      C3073   1.385   1_655  A
C3065      C3081   1.413       .  A
C3066      C3082   1.423       .  A
C3066      C3074   1.389       .  A
C3067      C3075   1.388       .  A
C3067      C3084   1.414       .  A
C3068      C3083   1.411       .  A
C3068      C3076   1.387       .  A
C3069      C3081   1.415       .  A
C3069      C3077   1.387       .  A
C3070      C3084   1.417       .  A
C3070      C3078   1.386       .  A
C3071      C3079   1.388       .  A
C3071      C3082   1.419       .  A
C3072      C3080   1.384       .  A
C3072      C3083   1.411       .  A
C3073      H3085   1.082   1_455  S
C3074      H3086   1.082       .  S
C3075      H3087   1.082       .  S
C3076      H3088   1.082       .  S
C3077      C3078   1.379       .  A
C3077      H3089   1.082       .  S
C3078      H3090   1.083       .  S
C3079      C3080   1.376       .  A
C3079      H3091   1.082       .  S
C3080      H3092   1.080       .  S
C3081      C3633   1.491       .  S
C3082      C3648   1.515       .  S
C3083      C3657   1.487       .  S
C3084      C3669   1.494       .  S
C3095      C3780   1.477       .  S
C3095      C3100   1.396       .  A
C3096      C3621   1.484       .  S
C3096      C3097   1.404       .  A
C3097      C3098   1.404       .  A
C3097      H3102   1.084       .  S
C3098      C3717   1.494       .  S
C3099      C3756   1.485       .  S
C3099      C3100   1.401       .  A
C3100      H3101   1.085       .  S
C3103      C3801   1.486       .  S
C3103      C3108   1.407       .  A
C3104      C3612   1.488       .  S
C3104      C3105   1.402       .  A
C3105      C3106   1.395       .  A
C3105      H3110   1.085       .  S
C3106      C3660   1.484       .  S
C3107      C3705   1.491       .  S
C3107      C3108   1.401       .  A
C3108      H3109   1.085       .  S
C3111      C3912   1.491       .  S
C3111      C3112   1.422       .  A
C3111      C3116   1.409       .  A
C3112      C3597   1.496       .  S
C3112      C3113   1.400       .  A
C3113      C3114   1.402       .  A
C3113      H3118   1.085       .  S
C3114      C3741   1.488       .  S
C3114      C3115   1.417       .  A
C3115      C3636   1.494       .  S
C3115      C3116   1.405       .  A
C3116      H3117   1.084       .  S
C3119      C3585   1.481       .  S
C3119      C3120   1.410       .  A
C3119      C3124   1.392       .  A
C3120      C3840   1.486       .  S
C3120      C3121   1.411       .  A
C3121      C3122   1.407       .  A
C3121      H3126   1.084       .  S
C3122      C3672   1.495       .  S
C3122      C3123   1.422       .  A
C3123      C3765   1.490       .  S
C3123      C3124   1.401       .  A
C3124      H3125   1.085       .  S
C3127      C3852   1.499       .  S
C3127      C3132   1.409       .  A
C3128      C3573   1.490       .  S
C3128      C3129   1.409       .  A
C3129      C3130   1.404       .  A
C3129      H3134   1.085       .  S
C3130      C3645   1.493       .  S
C3131      C3696   1.505       .  S
C3131      C3132   1.406       .  A
C3132      H3133   1.084       .  S
C3135      C3564   1.484       .  S
C3135      C3140   1.404       .  A
C3136      C3876   1.480       .  S
C3136      C3137   1.402       .  A
C3137      C3138   1.398       .  A
C3137      H3142   1.085       .  S
C3138      C3732   1.488       .  S
C3139      C3684   1.487       .  S
C3139      C3140   1.403       .  A
C3140      H3141   1.085       .  S
O3143     Ni3149   1.920       .  S
O3143      C3164   1.270       .  A
O3144     Ni3167   1.932       .  S
O3144      C3153   1.276       .  A
O3145     Ni3149   1.883       .  S
O3145     Ni3167   1.899       .  S
O3145     Ni3161   1.912       .  S
O3145      H3168   0.966       .  S
C3146      O3163   1.279       .  A
C3146      O3155   1.278       .  A
C3146      C3624   1.474       .  S
O3147     Ni3166   1.908       .  S
O3147      C3153   1.264       .  A
O3148     Ni3166   1.898       .  S
O3148      C3150   1.264       .  A
Ni3149     O3152   1.910       .  S
Ni3149     O3154   1.893       .  S
C3150      O3160   1.276       .  A
C3150      C3525   1.487       .  S
O3151     Ni3167   1.934       .  S
O3151      C3157   1.285       .  A
O3152      C3157   1.279       .  A
C3153      C3588   1.487       .  S
O3154      C3156   1.266       .  A
O3155     Ni3166   1.919       .  S
C3156      O3162   1.282       .  A
C3156      C3609   1.501       .  S
C3157      C3549   1.481       .  S
H3158      O3159   0.967       .  S
O3159     Ni3167   1.930       .  S
O3159     Ni3161   1.899       .  S
O3159     Ni3166   1.903       .  S
O3160     Ni3161   1.947       .  S
Ni3161     O3165   1.916       .  S
Ni3161     O3163   1.928       .  S
O3162     Ni3167   1.957       .  S
C3164      O3165   1.270       .  A
C3164      C3537   1.485       .  S
O3169     Ni3175   1.916       .  S
O3169      C3190   1.268       .  A
O3170     Ni3193   1.917       .  S
O3170      C3179   1.272       .  A
O3171     Ni3175   1.885       .  S
O3171     Ni3193   1.895   1_554  S
O3171     Ni3187   1.921   1_554  S
O3171      H3194   0.964       .  S
C3172      O3189   1.285       .  A
C3172      O3181   1.278       .  A
C3172      C3561   1.486       .  S
O3173     Ni3192   1.943       .  S
O3173      C3179   1.275       .  A
O3174     Ni3192   1.897       .  S
O3174      C3176   1.268   1_556  A
Ni3175     O3178   1.919       .  S
Ni3175     O3180   1.910       .  S
C3176      O3186   1.278       .  A
C3176      C3501   1.491       .  S
O3177     Ni3193   1.927   1_554  S
O3177      C3183   1.276       .  A
O3178      C3183   1.278       .  A
C3179      C3576   1.497       .  S
O3180      C3182   1.268   1_554  A
O3181     Ni3192   1.921       .  S
C3182      O3188   1.276       .  A
C3182      C3600   1.491       .  S
C3183      C3513   1.468       .  S
H3184      O3185   0.958       .  S
O3185     Ni3193   1.903       .  S
O3185     Ni3187   1.918       .  S
O3185     Ni3192   1.890       .  S
O3186     Ni3187   1.954   1_554  S
Ni3187     O3191   1.949   1_556  S
Ni3187     O3189   1.936       .  S
O3188     Ni3193   1.941       .  S
C3190      O3191   1.283       .  A
C3190      C3489   1.502       .  S
N3195      H3227   1.036       .  S
N3195      C3199   1.361       .  A
N3196      C3203   1.348       .  A
N3196      C3204   1.351       .  A
N3197      H3228   1.041       .  S
N3197      C3201   1.347       .  A
N3198      C3205   1.353       .  A
N3198      C3206   1.356       .  A
C3199      C3207   1.384       .  A
C3199      C3215   1.429       .  A
C3200      C3216   1.434       .  A
C3200      C3208   1.391       .  A
C3201      C3209   1.385       .  A
C3201      C3218   1.402       .  A
C3202      C3217   1.406       .  A
C3202      C3210   1.387       .  A
C3203      C3215   1.413       .  A
C3203      C3211   1.388       .  A
C3204      C3218   1.407       .  A
C3204      C3212   1.382       .  A
C3205      C3213   1.392       .  A
C3205      C3216   1.427       .  A
C3206      C3214   1.381       .  A
C3206      C3217   1.416       .  A
C3207      H3219   1.082       .  S
C3208      H3220   1.079       .  S
C3209      H3221   1.082       .  S
C3210      H3222   1.083       .  S
C3211      C3212   1.372       .  A
C3211      H3223   1.082       .  S
C3212      H3224   1.079       .  S
C3213      C3214   1.361       .  A
C3213      H3225   1.077       .  S
C3214      H3226   1.080       .  S
C3215      C3456   1.505       .  S
C3216      C3477   1.505       .  S
C3217      C3468   1.497       .  S
C3218      C3441   1.479       .  S
N3229      H3261   1.041       .  S
N3229      C3234   1.352       .  A
N3229      C3233   1.352       .  A
N3230      C3237   1.353       .  A
N3230      C3238   1.349       .  A
N3231      H3262   1.038       .  S
N3231      C3236   1.356       .  A
N3231      C3235   1.354       .  A
N3232      C3239   1.347       .  A
N3232      C3240   1.348       .  A
C3233      C3241   1.386       .  A
C3233      C3249   1.413       .  A
C3234      C3250   1.408       .  A
C3234      C3242   1.386       .  A
C3235      C3243   1.388       .  A
C3235      C3252   1.419       .  A
C3236      C3251   1.413       .  A
C3236      C3244   1.385       .  A
C3237      C3249   1.414       .  A
C3237      C3245   1.383       .  A
C3238      C3252   1.422       .  A
C3238      C3246   1.389       .  A
C3239      C3247   1.384       .  A
C3239      C3250   1.407       .  A
C3240      C3248   1.386       .  A
C3240      C3251   1.409       .  A
C3241      C3242   1.364       .  A
C3241      H3253   1.080       .  S
C3242      H3254   1.080       .  S
C3243      C3244   1.371       .  A
C3243      H3255   1.082       .  S
C3244      H3256   1.082       .  S
C3245      C3246   1.363       .  A
C3245      H3257   1.079       .  S
C3246      H3258   1.078       .  S
C3247      C3248   1.372       .  A
C3247      H3259   1.082       .  S
C3248      H3260   1.082       .  S
C3249      C3417   1.499       .  S
C3250      C3396   1.478       .  S
C3251      C3405   1.486       .  S
C3252      C3429   1.493       .  S
C3263      C3552   1.484       .  S
C3263      C3268   1.402       .  A
C3264      C3789   1.472       .  S
C3264      C3265   1.397       .  A
C3265      C3266   1.394       .  A
C3265      H3270   1.086       .  S
C3266      C3444   1.485       .  S
C3267      C3420   1.490       .  S
C3267      C3268   1.404       .  A
C3268      H3269   1.084       .  S
N3271      H3303   1.039   1_565  S
N3271      C3276   1.365       .  A
N3272      C3279   1.358       .  A
N3272      C3280   1.360       .  A
N3273      H3304   1.042       .  S
N3273      C3278   1.354       .  A
N3274      C3281   1.349       .  A
N3274      C3282   1.351       .  A
C3275      C3283   1.388       .  A
C3275      C3291   1.435       .  A
C3276      C3292   1.436       .  A
C3276      C3284   1.387       .  A
C3277      C3285   1.387       .  A
C3277      C3294   1.411       .  A
C3278      C3293   1.416       .  A
C3278      C3286   1.386       .  A
C3279      C3291   1.429       .  A
C3279      C3287   1.389       .  A
C3280      C3294   1.424       .  A
C3280      C3288   1.383       .  A
C3281      C3289   1.388       .  A
C3281      C3292   1.416       .  A
C3282      C3290   1.386       .  A
C3282      C3293   1.414       .  A
C3283      H3295   1.079       .  S
C3284      H3296   1.080       .  S
C3285      H3297   1.079       .  S
C3286      H3298   1.080       .  S
C3287      C3288   1.377       .  A
C3287      H3299   1.081       .  S
C3288      H3300   1.080       .  S
C3289      C3290   1.379       .  A
C3289      H3301   1.082       .  S
C3290      H3302   1.082       .  S
C3291      C3369   1.517       .  S
C3292      C3348   1.523       .  S
C3293      C3357   1.504       .  S
C3294      C3384   1.506       .  S
C3305      C3516   1.473       .  S
C3305      C3310   1.395       .  A
C3306      C3888   1.477       .  S
C3306      C3307   1.408       .  A
C3307      C3308   1.404       .  A
C3307      H3312   1.085       .  S
C3308      C3453   1.499       .  S
C3309      C3432   1.474       .  S
C3309      C3310   1.393       .  A
C3310      H3311   1.086       .  S
C3313      C3828   1.495       .  S
C3313      C3314   1.418       .  A
C3313      C3318   1.418       .  A
C3314      C3528   1.494       .  S
C3314      C3315   1.400       .  A
C3315      C3316   1.400       .  A
C3315      H3320   1.086       .  S
C3316      C3465   1.474       .  S
C3316      C3317   1.423       .  A
C3317      C3372   1.522       .  S
C3317      C3318   1.413       .  A
C3318      H3319   1.084       .  S
C3321      C3864   1.494       .  S
C3321      C3322   1.416       .  A
C3321      C3326   1.409       .  A
C3322      C3492   1.492       .  S
C3322      C3323   1.403       .  A
C3323      C3324   1.408       .  A
C3323      H3328   1.082       .  S
C3324      C3480   1.508       .  S
C3324      C3325   1.433       .  A
C3325      C3381   1.508       .  S
C3325      C3326   1.410       .  A
C3326      H3327   1.084       .  S
C3329      C3816   1.498       .  S
C3329      C3334   1.397       .  A
C3330      C3540   1.477       .  S
C3330      C3331   1.411       .  A
C3331      C3332   1.405       .  A
C3331      H3336   1.084       .  S
C3332      C3345   1.513       .  S
C3333      C3393   1.488       .  S
C3333      C3334   1.410       .  A
C3334      H3335   1.084       .  S
C3337      C3504   1.488       .  S
C3337      C3342   1.412       .  A
C3338      C3900   1.487   1_455  S
C3338      C3339   1.400   1_455  A
C3339      C3340   1.395   1_655  A
C3339      H3344   1.086       .  S
C3340      C3408   1.486   1_455  S
C3341      C3360   1.495       .  S
C3341      C3342   1.408       .  A
C3342      H3343   1.084       .  S
C3345      C3346   1.407       .  A
C3345      C3350   1.416       .  A
C3346      C3347   1.409       .  A
C3347      C3348   1.422       .  A
C3347      C3354   1.443       .  S
C3348      C3349   1.408       .  A
C3349      C3350   1.409       .  A
C3349      H3352   1.084       .  S
C3350      C3353   1.443       .  S
C3353      N3355   1.157       .  T
C3357      C3358   1.406       .  A
C3357      C3362   1.418       .  A
C3358      C3359   1.400       .  A
C3358      H3363   1.083       .  S
C3359      C3360   1.413       .  A
C3360      C3361   1.405       .  A
C3361      C3362   1.402       .  A
C3361      H3364   1.085       .  S
C3362      C3365   1.445       .  S
C3365      N3367   1.157       .  T
C3366      N3368   1.157       .  T
C3369      C3370   1.408       .  A
C3369      C3374   1.413       .  A
C3370      C3371   1.412       .  A
C3370      H3375   1.084       .  S
C3371      C3372   1.418       .  A
C3371      C3378   1.442       .  S
C3372      C3373   1.410       .  A
C3373      C3374   1.408       .  A
C3373      H3376   1.074       .  S
C3374      C3377   1.445       .  S
C3377      N3379   1.157       .  T
C3378      N3380   1.157       .  T
C3381      C3382   1.408       .  A
C3381      C3386   1.416       .  A
C3382      C3383   1.405       .  A
C3382      H3387   1.084       .  S
C3383      C3384   1.414       .  A
C3383      C3390   1.443       .  S
C3384      C3385   1.408       .  A
C3385      C3386   1.408       .  A
C3385      H3388   1.084       .  S
C3386      C3389   1.444       .  S
C3389      N3391   1.157       .  T
C3390      N3392   1.157       .  T
C3393      C3394   1.407       .  A
C3393      C3398   1.417       .  A
C3394      C3395   1.396       .  A
C3395      C3396   1.407       .  A
C3395      C3402   1.444       .  S
C3396      C3397   1.398       .  A
C3397      C3398   1.393       .  A
C3397      H3400   1.085       .  S
C3398      C3401   1.445       .  S
C3401      N3403   1.157       .  T
C3405      C3406   1.404       .  A
C3405      C3410   1.407       .  A
C3406      C3407   1.401       .  A
C3406      H3411   1.085       .  S
C3407      C3408   1.410       .  A
C3407      C3414   1.443   1_655  S
C3408      C3409   1.406       .  A
C3409      C3410   1.397       .  A
C3409      H3412   1.084       .  S
C3410      C3413   1.443       .  S
C3413      N3415   1.157       .  T
C3414      N3416   1.157       .  T
C3417      C3418   1.403       .  A
C3417      C3422   1.416       .  A
C3418      C3419   1.394       .  A
C3418      H3423   1.079       .  S
C3419      C3420   1.410       .  A
C3420      C3421   1.405       .  A
C3421      C3422   1.397       .  A
C3421      H3424   1.084       .  S
C3422      C3425   1.445       .  S
C3425      N3427   1.157       .  T
C3426      N3428   1.157       .  T
C3429      C3430   1.406       .  A
C3429      C3434   1.413       .  A
C3430      C3431   1.392       .  A
C3430      H3435   1.084       .  S
C3431      C3432   1.405       .  A
C3431      C3438   1.444       .  S
C3432      C3433   1.403       .  A
C3433      C3434   1.400       .  A
C3433      H3436   1.084       .  S
C3434      C3437   1.445       .  S
C3437      N3439   1.157       .  T
C3438      N3440   1.157       .  T
C3441      C3442   1.404       .  A
C3441      C3446   1.405       .  A
C3442      C3443   1.399       .  A
C3442      H3447   1.085       .  S
C3443      C3444   1.410       .  A
C3444      C3445   1.408       .  A
C3445      C3446   1.397       .  A
C3445      H3448   1.085       .  S
C3446      C3449   1.444       .  S
C3449      N3451   1.157       .  T
C3450      N3452   1.157   1_545  T
C3453      C3454   1.403       .  A
C3453      C3458   1.413       .  A
C3454      C3455   1.399       .  A
C3454      H3459   1.072       .  S
C3455      C3456   1.410       .  A
C3455      C3462   1.444       .  S
C3456      C3457   1.410       .  A
C3457      C3458   1.406       .  A
C3457      H3460   1.085       .  S
C3458      C3461   1.443       .  S
C3462      N3464   1.157       .  T
C3465      C3466   1.403       .  A
C3465      C3470   1.404       .  A
C3466      C3467   1.402       .  A
C3466      H3471   1.084       .  S
C3467      C3468   1.414       .  A
C3467      C3474   1.445       .  S
C3468      C3469   1.408       .  A
C3469      C3470   1.391       .  A
C3469      H3472   1.084       .  S
C3470      C3473   1.445       .  S
C3473      N3475   1.157       .  T
C3474      N3476   1.157       .  T
C3477      C3478   1.407       .  A
C3477      C3482   1.414       .  A
C3478      C3479   1.395       .  A
C3478      H3483   1.084       .  S
C3479      C3480   1.407       .  A
C3479      C3486   1.443       .  S
C3480      C3481   1.413       .  A
C3481      C3482   1.404       .  A
C3481      H3484   1.082       .  S
C3482      C3485   1.445       .  S
C3485      N3487   1.157       .  T
C3486      N3488   1.158       .  T
C3489      C3490   1.405       .  A
C3489      C3494   1.427       .  A
C3490      C3491   1.408       .  A
C3490      H3495   1.084       .  S
C3491      C3492   1.416       .  A
C3491      C3498   1.444       .  S
C3492      C3493   1.397       .  A
C3493      C3494   1.405       .  A
C3493      H3496   1.085       .  S
C3494      C3497   1.445       .  S
C3497      N3499   1.157       .  T
C3498      N3500   1.157       .  T
C3501      C3502   1.410       .  A
C3501      C3506   1.416       .  A
C3502      C3503   1.412       .  A
C3502      H3507   1.084       .  S
C3503      C3504   1.413       .  A
C3503      C3510   1.443       .  S
C3504      C3505   1.401       .  A
C3505      C3506   1.395       .  A
C3505      H3508   1.086       .  S
C3506      C3509   1.445       .  S
C3509      N3511   1.157       .  T
C3510      N3512   1.157       .  T
C3513      C3514   1.401       .  A
C3513      C3518   1.409       .  A
C3514      C3515   1.401       .  A
C3514      H3519   1.085       .  S
C3515      C3516   1.411       .  A
C3515      C3522   1.444       .  S
C3516      C3517   1.400       .  A
C3517      C3518   1.397       .  A
C3517      H3520   1.084       .  S
C3518      C3521   1.444       .  S
C3521      N3523   1.157       .  T
C3522      N3524   1.157       .  T
C3525      C3526   1.406       .  A
C3525      C3530   1.410       .  A
C3526      C3527   1.403       .  A
C3526      H3531   1.085       .  S
C3527      C3528   1.414       .  A
C3527      C3534   1.442       .  S
C3528      C3529   1.408       .  A
C3529      C3530   1.405       .  A
C3529      H3532   1.085       .  S
C3530      C3533   1.442       .  S
C3533      N3535   1.157       .  T
C3534      N3536   1.157       .  T
C3537      C3538   1.406       .  A
C3537      C3542   1.415       .  A
C3538      C3539   1.396       .  A
C3538      H3543   1.085       .  S
C3539      C3540   1.409       .  A
C3539      C3546   1.445       .  S
C3540      C3541   1.403       .  A
C3541      C3542   1.405       .  A
C3541      H3544   1.085       .  S
C3542      C3545   1.444       .  S
C3545      N3547   1.157       .  T
C3549      C3550   1.401       .  A
C3549      C3554   1.418       .  A
C3550      C3551   1.400       .  A
C3550      H3555   1.085       .  S
C3551      C3552   1.415       .  A
C3551      C3558   1.444       .  S
C3552      C3553   1.400       .  A
C3553      C3554   1.399       .  A
C3553      H3556   1.083       .  S
C3554      C3557   1.446       .  S
C3557      N3559   1.157       .  T
C3558      N3560   1.157       .  T
C3561      C3562   1.408       .  A
C3561      C3566   1.417       .  A
C3562      C3563   1.412       .  A
C3562      H3567   1.084       .  S
C3563      C3564   1.412       .  A
C3564      C3565   1.398       .  A
C3565      C3566   1.392       .  A
C3565      H3568   1.086       .  S
C3566      C3569   1.446       .  S
C3569      N3571   1.157       .  T
C3570      N3572   1.157       .  T
C3573      C3574   1.406       .  A
C3573      C3578   1.408       .  A
C3574      C3575   1.408       .  A
C3574      H3579   1.085       .  S
C3575      C3576   1.416       .  A
C3575      C3582   1.444       .  S
C3576      C3577   1.410       .  A
C3577      C3578   1.404       .  A
C3577      H3580   1.085       .  S
C3578      C3581   1.444       .  S
C3581      N3583   1.157       .  T
C3582      N3584   1.157       .  T
C3585      C3586   1.394       .  A
C3585      C3590   1.416       .  A
C3586      C3587   1.396       .  A
C3586      H3591   1.085       .  S
C3587      C3588   1.424       .  A
C3587      C3594   1.445       .  S
C3588      C3589   1.403       .  A
C3589      C3590   1.402       .  A
C3589      H3592   1.085       .  S
C3590      C3593   1.445       .  S
C3593      N3595   1.157       .  T
C3594      N3596   1.157       .  T
C3597      C3598   1.409       .  A
C3597      C3602   1.411       .  A
C3598      C3599   1.405       .  A
C3598      H3603   1.085       .  S
C3599      C3600   1.412       .  A
C3599      C3606   1.444       .  S
C3600      C3601   1.409       .  A
C3601      C3602   1.404       .  A
C3601      H3604   1.085       .  S
C3602      C3605   1.443       .  S
C3605      N3607   1.157       .  T
C3606      N3608   1.157       .  T
C3609      C3610   1.410       .  A
C3609      C3614   1.417       .  A
C3610      C3611   1.401       .  A
C3610      H3615   1.085       .  S
C3611      C3612   1.411       .  A
C3611      C3618   1.445       .  S
C3612      C3613   1.406       .  A
C3613      C3614   1.411       .  A
C3613      H3616   1.085       .  S
C3614      C3617   1.443       .  S
C3617      N3619   1.157       .  T
C3618      N3620   1.157       .  T
C3621      C3622   1.404       .  A
C3621      C3626   1.411       .  A
C3622      C3623   1.401       .  A
C3622      H3627   1.084       .  S
C3623      C3624   1.409       .  A
C3623      C3630   1.443       .  S
C3624      C3625   1.403       .  A
C3625      C3626   1.400       .  A
C3625      H3628   1.085       .  S
C3626      C3629   1.445       .  S
C3629      N3631   1.157       .  T
C3630      N3632   1.157       .  T
C3633      C3634   1.402       .  A
C3633      C3638   1.411       .  A
C3634      C3635   1.404       .  A
C3634      H3639   1.084       .  S
C3635      C3636   1.416       .  A
C3635      C3642   1.445       .  S
C3636      C3637   1.405       .  A
C3637      C3638   1.402       .  A
C3637      H3640   1.085       .  S
C3638      C3641   1.444       .  S
C3641      N3643   1.157       .  T
C3642      N3644   1.157       .  T
C3645      C3646   1.403       .  A
C3645      C3650   1.409       .  A
C3646      C3647   1.410       .  A
C3646      H3651   1.084       .  S
C3647      C3648   1.422       .  A
C3647      C3654   1.445       .  S
C3648      C3649   1.409       .  A
C3649      C3650   1.397       .  A
C3649      H3652   1.083       .  S
C3653      N3655   1.157       .  T
C3654      N3656   1.158       .  T
C3657      C3658   1.405       .  A
C3657      C3662   1.410       .  A
C3658      C3659   1.401       .  A
C3658      H3663   1.085       .  S
C3659      C3660   1.412       .  A
C3660      C3661   1.402       .  A
C3661      C3662   1.397       .  A
C3661      H3664   1.085       .  S
C3662      C3665   1.443       .  S
C3665      N3667   1.157       .  T
C3666      N3668   1.157       .  T
C3669      C3670   1.404       .  A
C3669      C3674   1.410       .  A
C3670      C3671   1.403       .  A
C3670      H3675   1.084       .  S
C3671      C3672   1.413       .  A
C3671      C3678   1.444       .  S
C3672      C3673   1.407       .  A
C3673      C3674   1.404       .  A
C3673      H3676   1.084       .  S
C3674      C3677   1.443       .  S
C3677      N3679   1.157       .  T
C3678      N3680   1.157       .  T
C3681      C3682   1.401       .  A
C3681      C3686   1.412       .  A
C3682      C3683   1.397       .  A
C3682      H3687   1.085       .  S
C3683      C3684   1.412       .  A
C3683      C3690   1.444       .  S
C3684      C3685   1.405       .  A
C3685      C3686   1.401       .  A
C3689      N3691   1.157       .  T
C3690      N3692   1.157       .  T
C3693      C3694   1.407       .  A
C3693      C3698   1.410       .  A
C3694      C3695   1.409       .  A
C3694      H3699   1.084       .  S
C3695      C3696   1.420       .  A
C3695      C3702   1.444       .  S
C3696      C3697   1.401       .  A
C3697      C3698   1.391       .  A
C3697      H3700   1.070       .  S
C3698      C3701   1.447       .  S
C3701      N3703   1.157       .  T
C3702      N3704   1.157       .  T
C3705      C3706   1.405       .  A
C3705      C3710   1.409       .  A
C3706      C3707   1.402       .  A
C3706      H3711   1.084       .  S
C3707      C3708   1.415       .  A
C3707      C3714   1.444       .  S
C3708      C3709   1.407       .  A
C3709      C3710   1.395       .  A
C3709      H3712   1.082       .  S
C3710      C3713   1.444       .  S
C3714      N3716   1.157       .  T
C3717      C3718   1.407       .  A
C3717      C3722   1.415       .  A
C3718      C3719   1.401       .  A
C3718      H3723   1.084       .  S
C3719      C3720   1.411       .  A
C3719      C3726   1.443       .  S
C3720      C3721   1.402       .  A
C3721      C3722   1.398       .  A
C3721      H3724   1.085       .  S
C3722      C3725   1.445       .  S
C3725      N3727   1.157       .  T
C3726      N3728   1.157       .  T
C3729      C3730   1.405       .  A
C3729      C3734   1.413       .  A
C3730      C3731   1.397       .  A
C3730      H3735   1.085       .  S
C3731      C3732   1.414       .  A
C3731      C3738   1.445       .  S
C3732      C3733   1.403       .  A
C3733      C3734   1.396       .  A
C3734      C3737   1.443       .  S
C3738      N3740   1.157       .  T
C3741      C3742   1.404       .  A
C3741      C3746   1.412       .  A
C3742      C3743   1.395       .  A
C3742      H3747   1.085       .  S
C3743      C3744   1.415       .  A
C3743      C3750   1.445       .  S
C3744      C3745   1.408       .  A
C3745      C3746   1.399       .  A
C3745      H3748   1.084       .  S
C3746      C3749   1.443       .  S
C3749      N3751   1.157       .  T
C3750      N3752   1.157       .  T
C3753      C3754   1.408       .  A
C3753      C3758   1.413       .  A
C3754      C3755   1.398       .  A
C3754      H3759   1.082       .  S
C3755      C3756   1.410       .  A
C3756      C3757   1.403       .  A
C3757      C3758   1.394       .  A
C3757      H3760   1.085       .  S
C3758      C3761   1.442       .  S
C3761      N3763   1.156       .  T
C3762      N3764   1.157       .  T
C3765      C3766   1.407       .  A
C3765      C3770   1.413       .  A
C3766      C3767   1.390       .  A
C3766      H3771   1.084       .  S
C3767      C3768   1.409       .  A
C3767      C3774   1.443       .  S
C3768      C3769   1.407       .  A
C3769      C3770   1.397       .  A
C3769      H3772   1.084       .  S
C3770      C3773   1.442       .  S
C3773      N3775   1.157       .  T
C3774      N3776   1.156       .  T
C3777      C3778   1.403       .  A
C3777      C3782   1.417       .  A
C3778      C3779   1.404       .  A
C3778      H3783   1.084       .  S
C3779      C3780   1.411       .  A
C3779      C3786   1.444       .  S
C3780      C3781   1.398       .  A
C3781      C3782   1.398       .  A
C3781      H3784   1.085       .  S
C3782      C3785   1.445       .  S
C3785      N3787   1.157       .  T
C3786      N3788   1.157       .  T
C3789      C3790   1.399       .  A
C3789      C3794   1.409       .  A
C3790      C3791   1.404       .  A
C3790      H3795   1.084       .  S
C3791      C3792   1.418       .  A
C3791      C3798   1.442       .  S
C3792      C3793   1.407       .  A
C3793      C3794   1.391       .  A
C3793      H3796   1.085       .  S
C3794      C3797   1.448       .  S
C3797      N3799   1.157       .  T
C3798      N3800   1.157       .  T
C3801      C3802   1.405       .  A
C3801      C3806   1.411       .  A
C3802      C3803   1.410       .  A
C3802      H3807   1.085       .  S
C3803      C3804   1.418       .  A
C3803      C3810   1.442       .  S
C3804      C3805   1.411       .  A
C3805      C3806   1.400       .  A
C3805      H3808   1.085       .  S
C3806      C3809   1.445       .  S
C3809      N3811   1.157       .  T
C3810      N3812   1.157       .  T
C3813      C3814   1.405       .  A
C3813      C3818   1.419       .  A
C3814      C3815   1.412       .  A
C3814      H3819   1.084       .  S
C3815      C3816   1.416       .  A
C3815      C3822   1.443       .  S
C3816      C3817   1.401       .  A
C3817      C3818   1.406       .  A
C3817      H3820   1.083       .  S
C3818      C3821   1.444       .  S
C3821      N3823   1.157       .  T
C3822      N3824   1.157       .  T
C3825      C3826   1.412       .  A
C3825      C3830   1.416       .  A
C3826      C3827   1.395       .  A
C3826      H3831   1.084       .  S
C3827      C3828   1.407       .  A
C3827      C3834   1.445       .  S
C3828      C3829   1.411       .  A
C3829      C3830   1.415       .  A
C3829      H3832   1.084       .  S
C3830      C3833   1.443       .  S
C3833      N3835   1.157       .  T
C3834      N3836   1.157       .  T
C3837      C3838   1.402       .  A
C3837      C3842   1.411       .  A
C3838      C3839   1.396       .  A
C3838      H3843   1.085       .  S
C3839      C3840   1.410       .  A
C3839      C3846   1.445       .  S
C3840      C3841   1.406       .  A
C3841      C3842   1.408       .  A
C3841      H3844   1.084       .  S
C3842      C3845   1.442       .  S
C3845      N3847   1.157       .  T
C3846      N3848   1.157       .  T
C3849      C3850   1.399       .  A
C3849      C3854   1.414       .  A
C3850      C3851   1.399       .  A
C3850      H3855   1.083       .  S
C3851      C3852   1.417       .  A
C3851      C3858   1.445       .  S
C3852      C3853   1.408       .  A
C3853      C3854   1.412       .  A
C3853      H3856   1.084       .  S
C3854      C3857   1.443       .  S
C3857      N3859   1.157       .  T
C3858      N3860   1.157       .  T
C3861      C3862   1.403       .  A
C3861      C3866   1.423       .  A
C3862      C3863   1.407       .  A
C3862      H3867   1.084       .  S
C3863      C3864   1.415       .  A
C3863      C3870   1.443       .  S
C3864      C3865   1.399       .  A
C3865      C3866   1.406       .  A
C3865      H3868   1.085       .  S
C3866      C3869   1.444       .  S
C3869      N3871   1.157   1_554  T
C3870      N3872   1.157       .  T
C3873      C3874   1.407       .  A
C3873      C3878   1.414       .  A
C3874      C3875   1.409       .  A
C3874      H3879   1.084       .  S
C3875      C3876   1.411       .  A
C3875      C3882   1.442       .  S
C3876      C3877   1.399       .  A
C3877      C3878   1.391       .  A
C3877      H3880   1.086       .  S
C3878      C3881   1.445       .  S
C3881      N3883   1.157       .  T
C3882      N3884   1.157       .  T
C3885      C3886   1.408       .  A
C3885      C3890   1.423       .  A
C3886      C3887   1.405       .  A
C3886      H3891   1.084       .  S
C3887      C3888   1.409       .  A
C3887      C3894   1.442       .  S
C3888      C3889   1.395       .  A
C3889      C3890   1.391       .  A
C3889      H3892   1.086       .  S
C3890      C3893   1.445       .  S
C3893      N3895   1.157       .  T
C3897      C3898   1.402       .  A
C3897      C3902   1.413       .  A
C3898      C3899   1.391       .  A
C3898      H3903   1.085       .  S
C3899      C3900   1.413       .  A
C3899      C3906   1.447       .  S
C3900      C3901   1.407       .  A
C3901      C3902   1.412       .  A
C3901      H3904   1.084       .  S
C3902      C3905   1.442       .  S
C3905      N3907   1.157   1_554  T
C3906      N3908   1.157       .  T
C3909      C3910   1.409       .  A
C3909      C3914   1.412       .  A
C3910      C3911   1.398       .  A
C3910      H3915   1.085       .  S
C3911      C3912   1.409       .  A
C3911      C3918   1.444       .  S
C3912      C3913   1.409       .  A
C3913      C3914   1.408       .  A
C3913      H3916   1.084       .  S
C3914      C3917   1.442       .  S
C3917      N3919   1.157       .  T
C3918      N3920   1.157       .  T
