geometry optimzed in LAMMPS
_audit_creation_date              2020-11-30 
_audit_creation_method            'lammps2cif' 
_symmetry_space_group_name_H-M    'P1' 
_symmetry_Int_Tables_number       1 
_symmetry_cell_setting            triclinic 
loop_ 
_symmetry_equiv_pos_as_xyz 
  x,y,z 
_cell_length_a                    29.14544858 
_cell_length_b                    29.15348369930999 
_cell_length_c                    33.83248425070186 
_cell_angle_alpha                 89.99966503461692 
_cell_angle_beta                  90.00030274946491 
_cell_angle_gamma                 120.29607294119444 
loop_ 
_atom_site_label 
_atom_site_type_symbol 
_atom_site_fract_x 
_atom_site_fract_y 
_atom_site_fract_z 
_atom_site_charge 
C1          C  0.15980161  0.10420528  0.35040394     0.03200
C2          C  0.15991125  0.05611091  0.35038489     0.03100
C3          C  0.17679902  0.04144902  0.38414465    -0.17400
C4          C  0.18704497  0.06915824  0.42051678     0.03200
C5          C  0.18693552  0.11870623  0.42052208     0.03100
C6          C  0.17662534  0.13596195  0.38413777    -0.17400
H7          H  0.17658194  0.17305618  0.38229038     0.05200
H8          H  0.17688189  0.50438865  0.38232678     0.05200
C9          C  0.15985349  0.10428256  0.14979784     0.03200
C10         C  0.15994453  0.05617762  0.14981521     0.03100
C11         C  0.17682713  0.04151214  0.11605306    -0.17400
C12         C  0.18709280  0.06923119  0.07968234     0.03200
C13         C  0.18699760  0.11878594  0.07967737     0.03100
C14         C  0.17668904  0.13604292  0.11606300    -0.17400
H15         H  0.17665528  0.17314196  0.11790922     0.05200
H16         H  0.17690842  0.00443409  0.11786414     0.05200
N17         N  0.04789708  0.42789578  0.31042075    -0.35700
N18         N  0.11733676  0.49843744  0.25009530    -0.56300
N19         N  0.04792156  0.42794660  0.18976644    -0.35700
N20         N  0.47743704  0.35844926  0.25009018    -0.56300
C21         C  0.07847463  0.47220624  0.33180230     0.27900
C22         C  0.00358055  0.39728680  0.33179876     0.27900
C23         C  0.07849514  0.47226669  0.16839117     0.27900
C24         C  0.00361237  0.39733763  0.16838427     0.27900
C25         C  0.14896474  0.01813550  0.28204914     0.36500
C26         C  0.14897487  0.01817130  0.21815065     0.36500
C27         C  0.45769334  0.32683116  0.28203442     0.36500
C28         C  0.45771825  0.32685188  0.21813462     0.36500
C29         C  0.05415100  0.46870552  0.36777457    -0.21000
C30         C  0.00704956  0.42158707  0.36777253    -0.21000
C31         C  0.05417364  0.46877473  0.13242001    -0.21000
C32         C  0.00708223  0.42164653  0.13241332    -0.21000
C33         C  0.20136566  0.04924527  0.27051386    -0.22100
C34         C  0.20137254  0.04926632  0.22969667    -0.22100
C35         C  0.42656695  0.27445206  0.27048395    -0.22100
C36         C  0.42658203  0.27446552  0.22966654    -0.22100
C37         C  0.12919564  0.01398949  0.32058984    -0.17400
C38         C  0.46181032  0.34658399  0.32057650    -0.17400
C39         C  0.46185020  0.34662683  0.17959847    -0.17400
C40         C  0.12921567  0.01405194  0.17960918    -0.17400
H41         H  0.06936202  0.49597182  0.39234914     0.17900
H42         H  0.47977389  0.40635153  0.39234480     0.15500
H43         H  0.06938156  0.49605250  0.10785168     0.15500
H44         H  0.47981605  0.40640936  0.10783578     0.15500
H45         H  0.23507105  0.07259050  0.28951689     0.13800
H46         H  0.23508515  0.07262744  0.21070342     0.13800
H47         H  0.40318090  0.24075082  0.28947442     0.13800
H48         H  0.40320697  0.24077755  0.21066228     0.13800
H49         H  0.05908152  0.41674742  0.28462862     0.27000
H50         H  0.05910109  0.41678574  0.21555498     0.27000
C51         C  0.37163390  0.31609134  0.14977786     0.03200
C52         C  0.41971185  0.31592374  0.14980949     0.03100
C53         C  0.43436443  0.29901728  0.11605569    -0.17400
C54         C  0.40665497  0.28878802  0.07968208     0.03200
C55         C  0.35710807  0.28892506  0.07967118     0.03100
C56         C  0.33986828  0.29927911  0.11604583    -0.17400
H57         H  0.30278179  0.29935814  0.11788775     0.05200
H58         H  0.47143080  0.29889312  0.11787311     0.05200
C59         C  0.41966176  0.31586734  0.35036218     0.03200
C60         C  0.37157181  0.31601469  0.35038658     0.03100
C61         C  0.33979865  0.29919172  0.38411899    -0.17400
C62         C  0.35703609  0.28884061  0.42049801     0.03200
C63         C  0.40658656  0.28871111  0.42049063     0.03100
C64         C  0.43430971  0.29895986  0.38411999    -0.17400
H65         H  0.47138252  0.29884792  0.38230845     0.05200
H66         H  0.30270906  0.29926464  0.38227662     0.05200
C67         C  0.37211152  0.05545322  0.14981443     0.03200
C68         C  0.42045686  0.10385281  0.14982446     0.03100
C69         C  0.43526522  0.13573232  0.11616414    -0.17400
C70         C  0.40716855  0.11858729  0.07991237     0.03200
C71         C  0.35733872  0.06872599  0.07990851     0.03100
C72         C  0.34023013  0.04061006  0.11615143    -0.17400
H73         H  0.30300128  0.50322719  0.11794483     0.05200
H74         H  0.47260666  0.17297097  0.11796515     0.05200
C75         C  0.37204959  0.05537444  0.35038460     0.03200
C76         C  0.42040224  0.10376562  0.35037814     0.03100
C77         C  0.43521070  0.13564033  0.38403852    -0.17400
C78         C  0.40710608  0.11849746  0.42028700     0.03200
C79         C  0.35727465  0.06863824  0.42029073     0.03100
C80         C  0.34016479  0.04052847  0.38404631    -0.17400
H81         H  0.30292870  0.50314942  0.38225400     0.05200
H82         H  0.47255542  0.17287558  0.38223845     0.05200
N83         N  0.04821633  0.12005808  0.18978278    -0.35700
N84         N  0.11735192  0.11908363  0.25010046    -0.56300
N85         N  0.04815902  0.11996356  0.31041712    -0.35700
N86         N  0.47800960  0.11896192  0.25010297    -0.56300
C87         C  0.07860105  0.10636216  0.16838955     0.27900
C88         C  0.00402109  0.10634885  0.16837105     0.27900
C89         C  0.07853886  0.10625707  0.33180495     0.27900
C90         C  0.00395784  0.10624246  0.33182506     0.27900
C91         C  0.14894086  0.13094734  0.21816987     0.36500
C92         C  0.14891622  0.13091039  0.28204198     0.36500
C93         C  0.45840400  0.13082825  0.21816087     0.36500
C94         C  0.45837707  0.13078581  0.28205084     0.36500
C95         C  0.05427407  0.08554398  0.13237710    -0.21000
C96         C  0.00737841  0.08556536  0.13235837    -0.21000
C97         C  0.05420179  0.08541743  0.36781103    -0.21000
C98         C  0.00730492  0.08543730  0.36783047    -0.21000
C99         C  0.20125160  0.15208646  0.22971482    -0.22100
C100        C  0.20123613  0.15206448  0.27051613    -0.22100
C101        C  0.42742533  0.15197814  0.22970676    -0.22100
C102        C  0.42741007  0.15195349  0.27051570    -0.22100
C103        C  0.12917024  0.11536966  0.17962363    -0.17400
C104        C  0.46248151  0.11525729  0.17960542    -0.17400
C105        C  0.46242874  0.11517059  0.32059741    -0.17400
C106        C  0.12911868  0.11528810  0.32057722    -0.17400
H107        H  0.06936562  0.07351568  0.10778758     0.15500
H108        H  0.48018140  0.07359009  0.10774918     0.15500
H109        H  0.06929247  0.07338649  0.39239947     0.15500
H110        H  0.48010559  0.07345677  0.39243830     0.15500
H111        H  0.23483083  0.16220665  0.21071972     0.13800
H112        H  0.23480145  0.16216551  0.28952233     0.13800
H113        H  0.40417433  0.16225435  0.21071003     0.13800
H114        H  0.40414788  0.16221059  0.28951672     0.13800
H115        H  0.05949632  0.14244345  0.21559599     0.27000
H116        H  0.05945276  0.14237252  0.28461561     0.27000
N117        N  0.35586755  0.42767394  0.31041086    -0.35700
N118        N  0.35702427  0.99789885  0.25009422    -0.56300
N119        N  0.35593523  0.42774261  0.18977262    -0.35700
N120        N  0.35682045  0.35855744  0.25008552    -0.56300
C121        C  0.36957609  0.47184893  0.33183119     0.27900
C122        C  0.36953893  0.39727664  0.33180557     0.27900
C123        C  0.36965513  0.47193020  0.16836316     0.27900
C124        C  0.36961097  0.39735303  0.16837417     0.27900
C125        C  0.34513000  0.01747211  0.28203943     0.36500
C126        C  0.34516485  0.01750943  0.21815238     0.36500
C127        C  0.34493847  0.32696898  0.28201347     0.36500
C128        C  0.34496153  0.32700037  0.21814213     0.36500
C129        C  0.39033705  0.46846865  0.36785021    -0.21000
C130        C  0.39034143  0.42157666  0.36782753    -0.21000
C131        C  0.39043046  0.46856676  0.13234671    -0.21000
C132        C  0.39042697  0.42167016  0.13235906    -0.21000
C133        C  0.32393512  0.04841024  0.27050205    -0.22100
C134        C  0.32395511  0.04843232  0.22969437    -0.22100
C135        C  0.32376161  0.27467070  0.27046497    -0.22100
C136        C  0.32377567  0.27469063  0.22966437    -0.22100
C137        C  0.36069127  0.01338487  0.32059549    -0.17400
C138        C  0.36051512  0.34671886  0.32056367    -0.17400
C139        C  0.36057216  0.34678476  0.17960369    -0.17400
C140        C  0.36075644  0.01345457  0.17959903    -0.17400
H141        H  0.40230168  0.49564394  0.39246751     0.15500
H142        H  0.40234219  0.40646844  0.39242208     0.15500
H143        H  0.40240316  0.49575309  0.10773586     0.15500
H144        H  0.40242414  0.40656715  0.10775955     0.15500
H145        H  0.31361886  0.07162023  0.28950479     0.13800
H146        H  0.31365286  0.07165930  0.21069769     0.13800
H147        H  0.31361160  0.24109288  0.28945826     0.13800
H148        H  0.31363902  0.24113121  0.21065401     0.13800
H149        H  0.33348904  0.41641392  0.28459172     0.27000
H150        H  0.33354107  0.41646393  0.21558388     0.27000
C151        C  0.04714848  0.16889330  0.85036195     0.03200
C152        C  0.09522567  0.16872075  0.85039100     0.03100
C153        C  0.12699572  0.18553307  0.88412488    -0.17400
C154        C  0.10977010  0.19590811  0.92049966     0.03200
C155        C  0.06022865  0.19605476  0.92048933     0.03100
C156        C  0.03250929  0.18581364  0.88411743    -0.17400
H157        H  0.49544497  0.18594215  0.88230361     0.05200
H158        H  0.16407612  0.18544188  0.88228512     0.05200
C159        C  0.04644942  0.38100532  0.85036791     0.03200
C160        C  0.09480314  0.42939584  0.85037559     0.03100
C161        C  0.12668320  0.44424064  0.88403987    -0.17400
C162        C  0.10956401  0.41613286  0.92028487     0.03200
C163        C  0.05973371  0.36627312  0.92027844     0.03100
C164        C  0.03163803  0.34912764  0.88402697    -0.17400
H165        H  0.49429373  0.31189193  0.88222521     0.05200
H166        H  0.16389421  0.48160988  0.88224521     0.05200
C167        C  0.30688291  0.42866542  0.85038754     0.03200
C168        C  0.30706480  0.38060792  0.85041782     0.03100
C169        C  0.29026559  0.34885429  0.88415348    -0.17400
C170        C  0.27990922  0.36608317  0.92053201     0.03200
C171        C  0.27976282  0.41561293  0.92052315     0.03100
C172        C  0.28997144  0.44330604  0.88414582    -0.17400
H173        H  0.28983126  0.48035408  0.88232787     0.05200
H174        H  0.29035399  0.31178284  0.88230924     0.05200
C175        C  0.04637555  0.38092846  0.64981915     0.03200
C176        C  0.09472020  0.42932795  0.64980714     0.03100
C177        C  0.12659443  0.44417333  0.61614106    -0.17400
C178        C  0.10947912  0.41605547  0.57989952     0.03200
C179        C  0.05965375  0.36619168  0.57990789     0.03100
C180        C  0.03156379  0.34904581  0.61616141    -0.17400
H181        H  0.49422383  0.31180604  0.61796536     0.05200
H182        H  0.16380010  0.48154794  0.61793309     0.05200
N183        N  0.11095844  0.05708300  0.81040530    -0.35700
N184        N  0.10996820  0.12618772  0.75008778    -0.56300
N185        N  0.11088065  0.05702322  0.68977244    -0.35700
N186        N  0.10983147  0.48688798  0.75008867    -0.56300
C187        C  0.09726128  0.08746106  0.83179932     0.27900
C188        C  0.09726460  0.01290878  0.83182225     0.27900
C189        C  0.09717851  0.08739809  0.66838136     0.27900
C190        C  0.09717164  0.01284079  0.66836069     0.27900
C191        C  0.12186166  0.15777456  0.78201690     0.36500
C192        C  0.12183709  0.15774929  0.71814651     0.36500
C193        C  0.12172321  0.46730850  0.78203177     0.36500
C194        C  0.12167990  0.46727385  0.71814359     0.36500
C195        C  0.07645263  0.06314882  0.86781619    -0.21000
C196        C  0.07648833  0.01627256  0.86783887    -0.21000
C197        C  0.07635076  0.06307560  0.63237023    -0.21000
C198        C  0.07637617  0.01619385  0.63235021    -0.21000
C199        C  0.14305807  0.21007710  0.77047180    -0.22100
C200        C  0.14304311  0.21006103  0.72967074    -0.22100
C201        C  0.14290669  0.43636255  0.77048929    -0.22100
C202        C  0.14288165  0.43634255  0.72968141    -0.22100
C203        C  0.10627904  0.13801869  0.82056424    -0.17400
C204        C  0.10615963  0.47138911  0.82058925    -0.17400
C205        C  0.10607564  0.47132478  0.67959283    -0.17400
C206        C  0.10621898  0.13796599  0.67960947    -0.17400
H207        H  0.06443275  0.07824218  0.89240868     0.15500
H208        H  0.06453729  0.98909936  0.89245651     0.15500
H209        H  0.06433324  0.07816945  0.60777675     0.15500
H210        H  0.06441310  0.98901352  0.60773661     0.15500
H211        H  0.15322539  0.24365717  0.78946716     0.13800
H212        H  0.15319586  0.24362609  0.71066200     0.13800
H213        H  0.15321106  0.41314082  0.78948907     0.13800
H214        H  0.15316736  0.41310604  0.71068171     0.13800
H215        H  0.13334617  0.06835834  0.78459046     0.27000
H216        H  0.13328876  0.06831299  0.71557724     0.27000
C217        C  0.09516504  0.16866206  0.64978189     0.03200
C218        C  0.04709053  0.16883665  0.64980967     0.03100
C219        C  0.03244966  0.18575354  0.61605595    -0.17400
C220        C  0.06016332  0.19598223  0.57968451     0.03200
C221        C  0.10970308  0.19583173  0.57967520     0.03100
C222        C  0.12693306  0.18546699  0.61605023    -0.17400
H223        H  0.16401405  0.18537695  0.61789309     0.05200
H224        H  0.49538872  0.18588859  0.61787204     0.05200
C225        C  0.30699247  0.38052904  0.64979867     0.03200
C226        C  0.30682706  0.42859654  0.64982255     0.03100
C227        C  0.28991139  0.44323003  0.61606119    -0.17400
C228        C  0.27968622  0.41552458  0.57968654     0.03200
C229        C  0.27982927  0.36599303  0.57968016     0.03100
C230        C  0.29018384  0.34876736  0.61606287    -0.17400
H231        H  0.29026880  0.31169424  0.61790743     0.05200
H232        H  0.28977982  0.48028257  0.61787398     0.05200
N233        N  0.41885168  0.05684370  0.68976483    -0.35700
N234        N  0.34939819  0.48637418  0.75009896    -0.56300
N235        N  0.41889421  0.05689101  0.81042420    -0.35700
N236        N  0.48936348  0.12632244  0.75009035    -0.56300
C237        C  0.38826671  0.01252590  0.66838960     0.27900
C238        C  0.46316395  0.08744283  0.66838147     0.27900
C239        C  0.38831120  0.01258314  0.83180681     0.27900
C240        C  0.46321490  0.08749150  0.83180107     0.27900
C241        C  0.31777452  0.46661411  0.71815434     0.36500
C242        C  0.31779405  0.46664676  0.78205491     0.36500
C243        C  0.00909008  0.15791847  0.71813473     0.36500
C244        C  0.00912047  0.15793958  0.78203397     0.36500
C245        C  0.41258223  0.01601392  0.63241635    -0.21000
C246        C  0.45968227  0.06313313  0.63240916    -0.21000
C247        C  0.41263492  0.01607916  0.86777871    -0.21000
C248        C  0.45974221  0.06319053  0.86777533    -0.21000
C249        C  0.26538510  0.43547055  0.72970511    -0.22100
C250        C  0.26539791  0.43549021  0.77052249    -0.22100
C251        C  0.04024502  0.21030268  0.72966604    -0.22100
C252        C  0.04026325  0.21031636  0.77048307    -0.22100
C253        C  0.33753587  0.47073989  0.67961156    -0.17400
C254        C  0.00494630  0.13814267  0.67959804    -0.17400
C255        C  0.00499684  0.13818609  0.82057642    -0.17400
C256        C  0.33757611  0.47079592  0.82059312    -0.17400
H257        H  0.39736935  0.98873411  0.60784940     0.15500
H258        H  0.48695133  0.07836068  0.60783278     0.15500
H259        H  0.39742325  0.98880999  0.89235201     0.15500
H260        H  0.48702329  0.07841859  0.89234497     0.15500
H261        H  0.23168038  0.41206984  0.71071509     0.13800
H262        H  0.23170593  0.41210439  0.78952686     0.13800
H263        H  0.06362776  0.24398846  0.71066147     0.13800
H264        H  0.06365982  0.24401525  0.78947292     0.13800
H265        H  0.40768451  0.06800708  0.71555774     0.27000
H266        H  0.40771504  0.06804254  0.78463110     0.27000
N267        N  0.41864562  0.36478169  0.68978545    -0.35700
N268        N  0.34954152  0.36580942  0.75010651    -0.56300
N269        N  0.41871083  0.36486299  0.81041710    -0.35700
N270        N  0.48883715  0.36583048  0.75009799    -0.56300
C271        C  0.38826908  0.37849024  0.66839397     0.27900
C272        C  0.46282809  0.37846219  0.66836725     0.27900
C273        C  0.38834242  0.37857944  0.83180968     0.27900
C274        C  0.46290507  0.37855667  0.83182520     0.27900
C275        C  0.31794287  0.35391076  0.71817813     0.36500
C276        C  0.31797262  0.35394209  0.78204895     0.36500
C277        C  0.00843229  0.35395757  0.71815347     0.36500
C278        C  0.00846686  0.35399790  0.78204326     0.36500
C279        C  0.41259051  0.39929554  0.63237806    -0.21000
C280        C  0.45946949  0.39924050  0.63235189    -0.21000
C281        C  0.41268080  0.39940294  0.86781779    -0.21000
C282        C  0.45956334  0.39935374  0.86783612    -0.21000
C283        C  0.26562607  0.33271499  0.72972503    -0.22100
C284        C  0.26564486  0.33273375  0.77052629    -0.22100
C285        C  0.03940333  0.33279682  0.72969518    -0.22100
C286        C  0.03942363  0.33282033  0.77050394    -0.22100
C287        C  0.33770088  0.36948177  0.67962904    -0.17400
C288        C  0.00435439  0.36953138  0.67959901    -0.17400
C289        C  0.00442173  0.36961143  0.82059184    -0.17400
C290        C  0.33776381  0.36955421  0.82058577    -0.17400
H291        H  0.39750204  0.41132983  0.60778968     0.15500
H292        H  0.48665003  0.41118419  0.60773419     0.15500
H293        H  0.39759762  0.41143722  0.89240904     0.15500
H294        H  0.48675345  0.41130582  0.89244815     0.15500
H295        H  0.23203383  0.32254394  0.71073081     0.13800
H296        H  0.23206956  0.32257895  0.78953550     0.13800
H297        H  0.06264464  0.32251139  0.71069565     0.13800
H298        H  0.06268092  0.32255318  0.78950208     0.13800
H299        H  0.40736184  0.34239915  0.71559995     0.27000
H300        H  0.40740941  0.34246076  0.78461251     0.27000
O301        O  0.14819312  0.23146129  0.98537947    -0.72100
O302        O  0.28244282  0.28977808  0.05090535    -0.73000
O303        O  0.24434202  0.32763765  0.98540192    -0.61700
O304        O  0.18608146  0.19339723  0.05090160    -0.70100
O305        O  0.22253856  0.15720961  0.01479283    -0.69600
O306        O  0.28079944  0.29145140  0.94929194    -0.60900
O307        O  0.31868704  0.25337905  0.01479532    -0.73400
O308        O  0.18443991  0.19506405  0.94927138    -0.72200
Cu309      Cu  0.21422623  0.26160296  0.01979004     1.04600
Cu310      Cu  0.25265317  0.22324053  0.98039444     1.04300
C311        C  0.14778106  0.20679974  0.95420163     0.94100
C312        C  0.31910101  0.27804150  0.04597173     0.93300
C313        C  0.26903206  0.32808038  0.95422865     0.85400
C314        C  0.19785820  0.15677440  0.04597085     0.91700
O315        O  0.48247997  0.19410652  0.05107409    -0.72100
O316        O  0.05766139  0.32783424  0.98490905    -0.73000
O317        O  0.48221045  0.28996421  0.05076073    -0.61700
O318        O  0.05800154  0.23221565  0.98515699    -0.70100
O319        O  0.48468451  0.19489306  0.94941767    -0.69600
O320        O  0.40889741  0.25264317  0.01501586    -0.60900
O321        O  0.48442269  0.29075315  0.94911082    -0.73400
O322        O  0.40923959  0.15702581  0.01527803    -0.72200
Cu323      Cu  0.02219347  0.26210161  0.01960321     1.04600
Cu324      Cu  0.44470701  0.22275770  0.98057780     1.04300
C325        C  0.43393251  0.15696181  0.04629770     0.94100
C326        C  0.03296887  0.32789892  0.95389016     0.93300
C327        C  0.43356662  0.27780912  0.04598653     0.85400
C328        C  0.03332781  0.20704680  0.95418740     0.91700
O329        O  0.24363740  0.41788030  0.98519962    -0.72100
O330        O  0.18588545  0.49369415  0.05076510    -0.73000
O331        O  0.14800281  0.41823410  0.98492781    -0.61700
O332        O  0.28176631  0.49342526  0.05108628    -0.70100
O333        O  0.31888581  0.06662938  0.01527198    -0.69600
O334        O  0.18508990  0.49144163  0.94911785    -0.60900
O335        O  0.22324536  0.06697964  0.01501271    -0.73400
O336        O  0.28096341  0.49116145  0.94944078    -0.72200
Cu337      Cu  0.21375162  0.45370615  0.01962375     1.04600
Cu338      Cu  0.25312993  0.03115636  0.98058204     1.04300
C339        C  0.26880021  0.44253012  0.95422176     0.94100
C340        C  0.19807264  0.04232326  0.04598617     0.93300
C341        C  0.14793995  0.44290715  0.95390051     0.85400
C342        C  0.31895082  0.04195650  0.04629859     0.91700
O343        O  0.28169808  0.49333361  0.44911685    -0.72100
O344        O  0.14792244  0.41814690  0.51526188    -0.73000
O345        O  0.18582236  0.49361422  0.44943130    -0.61700
O346        O  0.24355400  0.41778413  0.51500715    -0.70100
O347        O  0.28087825  0.49106636  0.55076350    -0.69600
O348        O  0.22318999  0.06689925  0.48518620    -0.60900
O349        O  0.18501028  0.49135562  0.55106991    -0.73400
O350        O  0.31882339  0.06653758  0.48492900    -0.72200
Cu351      Cu  0.21367762  0.45361653  0.48057484     1.04600
Cu352      Cu  0.25306463  0.03106751  0.51961529     1.04300
C353        C  0.31888779  0.04186615  0.45390152     0.94100
C354        C  0.14785772  0.44282315  0.54628617     0.93300
C355        C  0.19801827  0.04224546  0.45421232     0.85400
C356        C  0.26871628  0.44243541  0.54598541     0.91700
O357        O  0.48213417  0.28987833  0.44941893    -0.72100
O358        O  0.05793290  0.23214259  0.51502129    -0.73000
O359        O  0.48240823  0.19402396  0.44911917    -0.61700
O360        O  0.05758136  0.32775463  0.51527533    -0.70100
O361        O  0.48434304  0.29067079  0.55107370    -0.69600
O362        O  0.40916579  0.15694155  0.48491282    -0.60900
O363        O  0.48461553  0.19481531  0.55076086    -0.73400
O364        O  0.40881904  0.25255784  0.48516018    -0.72200
Cu365      Cu  0.02211850  0.26202160  0.48058067     1.04600
Cu366      Cu  0.44463102  0.22267539  0.51960504     1.04300
C367        C  0.43349078  0.27772432  0.45418942     0.94100
C368        C  0.03325943  0.20697063  0.54598899     0.93300
C369        C  0.43386302  0.15687587  0.45389726     0.85400
C370        C  0.03288902  0.32781720  0.54629519     0.91700
O371        O  0.24428059  0.32755677  0.51479856    -0.72100
O372        O  0.18601434  0.19331664  0.44929109    -0.73000
O373        O  0.14812986  0.23138374  0.51480202    -0.61700
O374        O  0.28237340  0.28969927  0.44927098    -0.70100
O375        O  0.31862185  0.25330708  0.48538391    -0.69600
O376        O  0.18437009  0.19497896  0.55091072    -0.60900
O377        O  0.22247725  0.15713379  0.48540010    -0.73400
O378        O  0.28072992  0.29136575  0.55091228    -0.72200
Cu379      Cu  0.21416204  0.26152465  0.48039810     1.04600
Cu380      Cu  0.25258802  0.22316180  0.51979482     1.04300
C381        C  0.26896011  0.32799343  0.54597799     0.94100
C382        C  0.19779252  0.15669476  0.45422449     0.93300
C383        C  0.14771311  0.20671734  0.54597734     0.85400
C384        C  0.31903081  0.27796133  0.45420233     0.91700
C385        C  0.15976759  0.60420462  0.35040317     0.03200
C386        C  0.15988859  0.55611593  0.35038217     0.03100
C387        C  0.17677833  0.54145534  0.38414158    -0.17400
C388        C  0.18701721  0.56916030  0.42051460     0.03200
C389        C  0.18690427  0.61870610  0.42052046     0.03100
C390        C  0.17658739  0.63595963  0.38413778    -0.17400
H391        H  0.17653727  0.67305054  0.38229210     0.05200
H392        H  0.17689645  0.00437932  0.38233060     0.05200
C393        C  0.15980896  0.60427477  0.14979492     0.03200
C394        C  0.15991789  0.55617890  0.14981516     0.03100
C395        C  0.17680618  0.54151733  0.11605401    -0.17400
C396        C  0.18706473  0.56923216  0.07968229     0.03200
C397        C  0.18695990  0.61878180  0.07967587     0.03100
C398        C  0.17663734  0.63603265  0.11605889    -0.17400
H399        H  0.17659154  0.67312571  0.11790307     0.05200
H400        H  0.17689794  0.50444463  0.11786667     0.05200
N401        N  0.04790501  0.92789851  0.31042241    -0.35700
N402        N  0.11734960  0.99843939  0.25009641    -0.56300
N403        N  0.04792736  0.92795605  0.18976638    -0.35700
N404        N  0.47743378  0.85846488  0.25008992    -0.56300
C405        C  0.07848959  0.97220524  0.33180581     0.27900
C406        C  0.00358819  0.89729215  0.33180114     0.27900
C407        C  0.07850972  0.97227269  0.16839010     0.27900
C408        C  0.00361744  0.89735194  0.16838327     0.27900
C409        C  0.14895065  0.51814151  0.28204759     0.36500
C410        C  0.14896033  0.51817529  0.21814958     0.36500
C411        C  0.45769228  0.82684422  0.28203324     0.36500
C412        C  0.45771623  0.82686848  0.21813362     0.36500
C413        C  0.05417000  0.96870441  0.36778000    -0.21000
C414        C  0.00706393  0.92159018  0.36777719    -0.21000
C415        C  0.05419255  0.96878305  0.13241735    -0.21000
C416        C  0.00709471  0.92166084  0.13241104    -0.21000
C417        C  0.20135016  0.54926215  0.27051216    -0.22100
C418        C  0.20135682  0.54928208  0.22969502    -0.22100
C419        C  0.42656819  0.77446561  0.27048136    -0.22100
C420        C  0.42658296  0.77448133  0.22966409    -0.22100
C421        C  0.12917867  0.51399408  0.32058708    -0.17400
C422        C  0.46181240  0.84659303  0.32057698    -0.17400
C423        C  0.46185035  0.84664328  0.17959720    -0.17400
C424        C  0.12919756  0.51405221  0.17960936    -0.17400
H425        H  0.06938607  0.99596784  0.39235607     0.17900
H426        H  0.47978943  0.90635618  0.39235020     0.15500
H427        H  0.06940757  0.99605728  0.10784731     0.15500
H428        H  0.47982993  0.90642673  0.10783248     0.15500
H429        H  0.23505357  0.57261690  0.28951480     0.13800
H430        H  0.23506701  0.57265127  0.21070169     0.13800
H431        H  0.40318580  0.74076285  0.28947115     0.13800
H432        H  0.40321140  0.74079384  0.21065868     0.13800
H433        H  0.05908431  0.91675017  0.28462783     0.27000
H434        H  0.05910161  0.91679266  0.21555617     0.27000
C435        C  0.37162451  0.81607952  0.14977957     0.03200
C436        C  0.41971484  0.81593642  0.14980639     0.03100
C437        C  0.43437337  0.79903883  0.11605125    -0.17400
C438        C  0.40665720  0.78879767  0.07967983     0.03200
C439        C  0.35710115  0.78891656  0.07967210     0.03100
C440        C  0.33985584  0.79925851  0.11604893    -0.17400
H441        H  0.30276169  0.79932237  0.11789302     0.05200
H442        H  0.47144731  0.79892960  0.11786662     0.05200
C443        C  0.41966427  0.81587335  0.35036299     0.03200
C444        C  0.37156772  0.81600770  0.35038450     0.03100
C445        C  0.33979275  0.79918091  0.38411624    -0.17400
C446        C  0.35703201  0.78883478  0.42049638     0.03200
C447        C  0.40658774  0.78871549  0.42049096     0.03100
C448        C  0.43431430  0.79896962  0.38412145    -0.17400
H449        H  0.47139088  0.79886519  0.38231108     0.05200
H450        H  0.30269954  0.79924661  0.38227270     0.05200
C451        C  0.37208285  0.55545127  0.14981569     0.03200
C452        C  0.42041974  0.60385937  0.14982889     0.03100
C453        C  0.43522419  0.63574145  0.11616978    -0.17400
C454        C  0.40713522  0.61859117  0.07991529     0.03200
C455        C  0.35730963  0.56872526  0.07990985     0.03100
C456        C  0.34020359  0.54060494  0.11615155    -0.17400
H457        H  0.30302290  0.00323737  0.11794656     0.05200
H458        H  0.47256003  0.67298554  0.11797297     0.05200
C459        C  0.37202026  0.55536884  0.35038848     0.03200
C460        C  0.42036780  0.60376492  0.35038045     0.03100
C461        C  0.43517409  0.63564101  0.38404004    -0.17400
C462        C  0.40707393  0.61849589  0.42029012     0.03200
C463        C  0.35724367  0.56863485  0.42029432     0.03100
C464        C  0.34013620  0.54052157  0.38405063    -0.17400
H465        H  0.30295445  0.00315904  0.38224894     0.05200
H466        H  0.47251569  0.67287934  0.38223824     0.05200
N467        N  0.04817670  0.62005663  0.18978391    -0.35700
N468        N  0.11730639  0.61906638  0.25009989    -0.56300
N469        N  0.04812342  0.61996254  0.31041823    -0.35700
N470        N  0.47798018  0.61897660  0.25010530    -0.56300
C471        C  0.07855557  0.60635343  0.16839015     0.27900
C472        C  0.00398315  0.60635498  0.16837249     0.27900
C473        C  0.07850194  0.60625368  0.33180544     0.27900
C474        C  0.00392356  0.60624436  0.33182681     0.27900
C475        C  0.14889477  0.63093562  0.21816842     0.36500
C476        C  0.14887414  0.63090252  0.28204027     0.36500
C477        C  0.45836876  0.63083776  0.21816406     0.36500
C478        C  0.45834191  0.63079148  0.28205424     0.36500
C479        C  0.05422652  0.58553691  0.13237819    -0.21000
C480        C  0.00733687  0.58557010  0.13235928    -0.21000
C481        C  0.05416564  0.58541541  0.36781187    -0.21000
C482        C  0.00727049  0.58543869  0.36783215    -0.21000
C483        C  0.20120756  0.65208717  0.22971145    -0.22100
C484        C  0.20119470  0.65206748  0.27051277    -0.22100
C485        C  0.42738017  0.65197584  0.22971180    -0.22100
C486        C  0.42736508  0.65194884  0.27052069    -0.22100
C487        C  0.12912366  0.61535706  0.17962265    -0.17400
C488        C  0.46244666  0.61526782  0.17960817    -0.17400
C489        C  0.46239489  0.61517383  0.32059982    -0.17400
C490        C  0.12908069  0.61528299  0.32057663    -0.17400
H491        H  0.06931328  0.57350256  0.10778917     0.15500
H492        H  0.48014139  0.57360129  0.10774947     0.15500
H493        H  0.06925579  0.57338318  0.39239995     0.15500
H494        H  0.48007185  0.57345971  0.39244046     0.15500
H495        H  0.23478786  0.66221750  0.21071480     0.13800
H496        H  0.23476342  0.66218039  0.28951816     0.13800
H497        H  0.40412060  0.66224266  0.21071649     0.13800
H498        H  0.40409478  0.66219472  0.28952246     0.13800
H499        H  0.05946030  0.64244203  0.21559706     0.27000
H500        H  0.05941792  0.64237114  0.28461652     0.27000
N501        N  0.35587377  0.92767132  0.31040808    -0.35700
N502        N  0.35701126  0.49789968  0.25009649    -0.56300
N503        N  0.35593263  0.92773406  0.18977165    -0.35700
N504        N  0.35680167  0.85854174  0.25008456    -0.56300
C505        C  0.36959333  0.97185008  0.33182663     0.27900
C506        C  0.36954144  0.89727081  0.33180215     0.27900
C507        C  0.36966492  0.97192519  0.16836318     0.27900
C508        C  0.36960252  0.89733953  0.16837398     0.27900
C509        C  0.34510803  0.51746535  0.28204205     0.36500
C510        C  0.34514449  0.51750431  0.21815447     0.36500
C511        C  0.34492423  0.82695553  0.28201329     0.36500
C512        C  0.34494294  0.82698402  0.21814173     0.36500
C513        C  0.39035774  0.96846940  0.36784387    -0.21000
C514        C  0.39035242  0.92157273  0.36782208    -0.21000
C515        C  0.39044203  0.96855940  0.13234827    -0.21000
C516        C  0.39042577  0.92165660  0.13236000    -0.21000
C517        C  0.32390124  0.54839280  0.27050459    -0.22100
C518        C  0.32392210  0.54841575  0.22969691    -0.22100
C519        C  0.32374906  0.77465672  0.27046596    -0.22100
C520        C  0.32376068  0.77467491  0.22966513    -0.22100
C521        C  0.36066792  0.51337975  0.32059937    -0.17400
C522        C  0.36050787  0.84670917  0.32056198    -0.17400
C523        C  0.36055621  0.84676896  0.17960366    -0.17400
C524        C  0.36073655  0.51345320  0.17959989    -0.17400
H525        H  0.40233038  0.99564760  0.39245983     0.15500
H526        H  0.40235214  0.90646261  0.39241604     0.15500
H527        H  0.40242562  0.99574958  0.10773917     0.15500
H528        H  0.40242096  0.90655049  0.10776145     0.15500
H529        H  0.31357404  0.57159397  0.28950763     0.13800
H530        H  0.31360970  0.57163485  0.21070019     0.13800
H531        H  0.31360426  0.74108045  0.28945961     0.13800
H532        H  0.31362714  0.74111536  0.21065564     0.13800
H533        H  0.33349027  0.91641160  0.28459129     0.27000
H534        H  0.33353582  0.91645786  0.21558169     0.27000
C535        C  0.04712981  0.66888531  0.85036445     0.03200
C536        C  0.09521515  0.66872887  0.85038939     0.03100
C537        C  0.12698872  0.68554703  0.88412160    -0.17400
C538        C  0.10976084  0.69591374  0.92049843     0.03200
C539        C  0.06021302  0.69604773  0.92049169     0.03100
C540        C  0.03248802  0.68579934  0.88412170    -0.17400
H541        H  0.49541858  0.68591806  0.88231024     0.05200
H542        H  0.16407406  0.68546589  0.88227938     0.05200
C543        C  0.04648554  0.88100399  0.85036583     0.03200
C544        C  0.09483789  0.92939604  0.85037469     0.03100
C545        C  0.12671482  0.94423973  0.88404055    -0.17400
C546        C  0.10959146  0.91613178  0.92028579     0.03200
C547        C  0.05976039  0.86627228  0.92027843     0.03100
C548        C  0.03167175  0.84912492  0.88402452    -0.17400
H549        H  0.49432882  0.81188825  0.88222104     0.05200
H550        H  0.16392596  0.98160890  0.88224697     0.05200
C551        C  0.30691718  0.92866511  0.85038706     0.03200
C552        C  0.30710269  0.88060952  0.85041838     0.03100
C553        C  0.29030302  0.84885699  0.88415443    -0.17400
C554        C  0.27993651  0.86608310  0.92053056     0.03200
C555        C  0.27979064  0.91561292  0.92052090     0.03100
C556        C  0.29000318  0.94330613  0.88414384    -0.17400
H557        H  0.28986257  0.98035391  0.88232487     0.05200
H558        H  0.29039488  0.81178721  0.88231192     0.05200
C559        C  0.04641370  0.88093302  0.64981745     0.03200
C560        C  0.09475851  0.92933227  0.64980519     0.03100
C561        C  0.12663145  0.94417544  0.61613857    -0.17400
C562        C  0.10951308  0.91605757  0.57989671     0.03200
C563        C  0.05968492  0.86619592  0.57990467     0.03100
C564        C  0.03159958  0.84904978  0.61615985    -0.17400
H565        H  0.49425964  0.81181011  0.61796509     0.05200
H566        H  0.16383826  0.98154885  0.61793041     0.05200
N567        N  0.11093846  0.55708648  0.81040539    -0.35700
N568        N  0.10996250  0.62619756  0.75008876    -0.56300
N569        N  0.11085490  0.55702208  0.68977518    -0.35700
N570        N  0.10986432  0.98689122  0.75008727    -0.56300
C571        C  0.09724592  0.58746837  0.83179882     0.27900
C572        C  0.09723640  0.51291015  0.83182186     0.27900
C573        C  0.09715726  0.58740051  0.66838459     0.27900
C574        C  0.09713753  0.51283724  0.66836430     0.27900
C575        C  0.12185708  0.65778499  0.78201737     0.36500
C576        C  0.12183111  0.65775798  0.71814711     0.36500
C577        C  0.12175951  0.96731457  0.78203069     0.36500
C578        C  0.12171873  0.96728227  0.71814179     0.36500
C579        C  0.07643223  0.56315629  0.86781483    -0.21000
C580        C  0.07645925  0.51627581  0.86783748    -0.21000
C581        C  0.07632330  0.56307734  0.63237473    -0.21000
C582        C  0.07634060  0.51619166  0.63235498    -0.21000
C583        C  0.14305462  0.71008766  0.77047170    -0.22100
C584        C  0.14303885  0.71007049  0.72967055    -0.22100
C585        C  0.14295175  0.93637650  0.77048788    -0.22100
C586        C  0.14292825  0.93635792  0.72967982    -0.22100
C587        C  0.10627112  0.63802848  0.82056401    -0.17400
C588        C  0.10619338  0.97139119  0.82058885    -0.17400
C589        C  0.10611376  0.97133092  0.67959021    -0.17400
C590        C  0.10620775  0.63797214  0.67961136    -0.17400
H591        H  0.06441469  0.57825264  0.89240694     0.15500
H592        H  0.06450218  0.48910090  0.89245436     0.15500
H593        H  0.06430805  0.57817382  0.60778152     0.15500
H594        H  0.06437271  0.48901013  0.60774188     0.15500
H595        H  0.15322226  0.74366859  0.78946643     0.13800
H596        H  0.15319095  0.74363540  0.71066158     0.13800
H597        H  0.15326188  0.91315923  0.78948763     0.13800
H598        H  0.15322104  0.91312711  0.71067993     0.13800
H599        H  0.13332868  0.56836002  0.78459173     0.27000
H600        H  0.13326681  0.56831121  0.71557820     0.27000
C601        C  0.09515389  0.66866722  0.64978415     0.03200
C602        C  0.04707407  0.66883137  0.64980842     0.03100
C603        C  0.03243385  0.68574581  0.61605348    -0.17400
C604        C  0.06015226  0.69597882  0.57968368     0.03200
C605        C  0.10969584  0.69583569  0.57967717     0.03100
C606        C  0.12692534  0.68547504  0.61605384    -0.17400
H607        H  0.16400882  0.68539014  0.61789867     0.05200
H608        H  0.49537040  0.68587591  0.61786765     0.05200
C609        C  0.30702630  0.88052550  0.64979879     0.03200
C610        C  0.30686139  0.92859323  0.64982302     0.03100
C611        C  0.28994708  0.94322931  0.61606211    -0.17400
C612        C  0.27971870  0.91552381  0.57968776     0.03200
C613        C  0.27985685  0.86599013  0.57968175     0.03100
C614        C  0.29021590  0.84876459  0.61606290    -0.17400
H615        H  0.29030052  0.81169120  0.61790631     0.05200
H616        H  0.28981821  0.98028324  0.61787509     0.05200
N617        N  0.41882676  0.55684461  0.68976313    -0.35700
N618        N  0.34942756  0.98637152  0.75009910    -0.56300
N619        N  0.41887084  0.55688737  0.81042525    -0.35700
N620        N  0.48934784  0.62631260  0.75009041    -0.56300
C621        C  0.38823579  0.51252909  0.66838710     0.27900
C622        C  0.46313990  0.58744027  0.66837925     0.27900
C623        C  0.38828209  0.51258133  0.83180827     0.27900
C624        C  0.46319243  0.58748406  0.83180250     0.27900
C625        C  0.31780479  0.96660635  0.71815481     0.36500
C626        C  0.31782398  0.96664109  0.78205468     0.36500
C627        C  0.00907516  0.65790978  0.71813512     0.36500
C628        C  0.00910535  0.65792924  0.78203449     0.36500
C629        C  0.41254820  0.51601588  0.63241258    -0.21000
C630        C  0.45965248  0.56313124  0.63240565    -0.21000
C631        C  0.41260336  0.51607522  0.86778099    -0.21000
C632        C  0.45971484  0.56318267  0.86777742    -0.21000
C633        C  0.26541610  0.93545585  0.72970523    -0.22100
C634        C  0.26542876  0.93547682  0.77052244    -0.22100
C635        C  0.04023117  0.71029321  0.72966724    -0.22100
C636        C  0.04024924  0.71030591  0.77048416    -0.22100
C637        C  0.33756801  0.97073445  0.67961285    -0.17400
C638        C  0.00492870  0.63813642  0.67959718    -0.17400
C639        C  0.00497909  0.63817636  0.82057761    -0.17400
C640        C  0.33760739  0.97079418  0.82059229    -0.17400
H641        H  0.39733149  0.48873716  0.60784513     0.15500
H642        H  0.48692129  0.57835614  0.60782900     0.15500
H643        H  0.39738770  0.48880770  0.89235498     0.15500
H644        H  0.48699532  0.57840799  0.89234753     0.15500
H645        H  0.23171279  0.91204954  0.71071539     0.13800
H646        H  0.23173791  0.91208644  0.78952681     0.13800
H647        H  0.06361369  0.74397912  0.71066289     0.13800
H648        H  0.06364550  0.74400393  0.78947457     0.13800
H649        H  0.40766420  0.56800853  0.71555804     0.27000
H650        H  0.40769557  0.56804082  0.78463119     0.27000
N651        N  0.41868288  0.86478218  0.68978445    -0.35700
N652        N  0.34957993  0.86581263  0.75010628    -0.56300
N653        N  0.41874840  0.86486384  0.81041614    -0.35700
N654        N  0.48887305  0.86582861  0.75009639    -0.56300
C655        C  0.38830459  0.87848839  0.66839289     0.27900
C656        C  0.46286589  0.87846480  0.66836632     0.27900
C657        C  0.38838100  0.87858137  0.83180912     0.27900
C658        C  0.46294247  0.87855629  0.83182389     0.27900
C659        C  0.31797962  0.85390660  0.71817811     0.36500
C660        C  0.31801093  0.85394135  0.78204920     0.36500
C661        C  0.00847365  0.85396264  0.71815171     0.36500
C662        C  0.00850656  0.85399988  0.78204121     0.36500
C663        C  0.41262523  0.89929395  0.63237684    -0.21000
C664        C  0.45950598  0.89924234  0.63235092    -0.21000
C665        C  0.41271990  0.89940474  0.86781701    -0.21000
C666        C  0.45960145  0.89935352  0.86783511    -0.21000
C667        C  0.26566200  0.83270207  0.72972571    -0.22100
C668        C  0.26568172  0.83272289  0.77052713    -0.22100
C669        C  0.03945239  0.83281031  0.72969270    -0.22100
C670        C  0.03947167  0.83283196  0.77050128    -0.22100
C671        C  0.33773581  0.86947783  0.67962843    -0.17400
C672        C  0.00439382  0.86953625  0.67959785    -0.17400
C673        C  0.00445891  0.86961086  0.82058992    -0.17400
C674        C  0.33780215  0.86955580  0.82058595    -0.17400
H675        H  0.39753511  0.91132611  0.60778822     0.15500
H676        H  0.48668687  0.91118775  0.60773336     0.15500
H677        H  0.39763744  0.91143991  0.89240822     0.15500
H678        H  0.48679134  0.91130462  0.89244710     0.15500
H679        H  0.23206745  0.82252151  0.71073151     0.13800
H680        H  0.23210496  0.82255998  0.78953686     0.13800
H681        H  0.06270065  0.82253401  0.71069311     0.13800
H682        H  0.06273549  0.82257255  0.78949890     0.13800
H683        H  0.40739970  0.84239980  0.71559905     0.27000
H684        H  0.40744639  0.84246154  0.78461158     0.27000
O685        O  0.14819196  0.73147372  0.98537542    -0.72100
O686        O  0.28243933  0.78977509  0.05090484    -0.73000
O687        O  0.24435366  0.82763945  0.98539685    -0.61700
O688        O  0.18606639  0.69340435  0.05090074    -0.70100
O689        O  0.22251173  0.65720285  0.01479441    -0.69600
O690        O  0.28080189  0.79144016  0.94929130    -0.60900
O691        O  0.31867288  0.75336162  0.01479891    -0.73400
O692        O  0.18442877  0.69506440  0.94926957    -0.72200
Cu693      Cu  0.21422440  0.76160812  0.01978727     1.04600
Cu694      Cu  0.25264045  0.72323120  0.98039529     1.04300
C695        C  0.14777410  0.70680628  0.95419925     0.94100
C696        C  0.31909272  0.77803134  0.04597298     0.93300
C697        C  0.26904499  0.82807654  0.95422609     0.85400
C698        C  0.19783202  0.65677371  0.04597080     0.91700
O699        O  0.48245766  0.69410017  0.05107612    -0.72100
O700        O  0.05767076  0.82783162  0.98491289    -0.73000
O701        O  0.48221010  0.78996803  0.05075993    -0.61700
O702        O  0.05798730  0.73220205  0.98516203    -0.70100
O703        O  0.48467218  0.69489068  0.94942060    -0.69600
O704        O  0.40890033  0.75266022  0.01501142    -0.60900
O705        O  0.48443578  0.79076266  0.94911043    -0.73400
O706        O  0.40921929  0.65703198  0.01527765    -0.72200
Cu707      Cu  0.02218625  0.76209642  0.01960591     1.04600
Cu708      Cu  0.44470308  0.72276577  0.98057710     1.04300
C709        C  0.43390699  0.65696263  0.04629910     0.94100
C710        C  0.03298500  0.82790146  0.95389141     0.93300
C711        C  0.43356864  0.77781988  0.04598405     0.85400
C712        C  0.03331349  0.70703852  0.95419094     0.91700
O713        O  0.24366556  0.91788146  0.98519784    -0.72100
O714        O  0.18591311  0.99369341  0.05076463    -0.73000
O715        O  0.14802908  0.91823181  0.98492857    -0.61700
O716        O  0.28179470  0.99342545  0.05108554    -0.70100
O717        O  0.31885831  0.56663028  0.01527370    -0.69600
O718        O  0.18511396  0.99144103  0.94912014    -0.60900
O719        O  0.22321733  0.56697938  0.01501225    -0.73400
O720        O  0.28098739  0.99116088  0.94943741    -0.72200
Cu721      Cu  0.21377938  0.95370576  0.01962320     1.04600
Cu722      Cu  0.25310402  0.53115682  0.98058262     1.04300
C723        C  0.26882598  0.94253015  0.95421891     0.94100
C724        C  0.19804514  0.54232393  0.04598622     0.93300
C725        C  0.14796513  0.94290589  0.95390224     0.85400
C726        C  0.31892270  0.54195638  0.04629981     0.91700
O727        O  0.28173217  0.99333466  0.44911454    -0.72100
O728        O  0.14795713  0.91814597  0.51526062    -0.73000
O729        O  0.18585600  0.99361459  0.44943226    -0.61700
O730        O  0.24359007  0.91778611  0.51500689    -0.70100
O731        O  0.28091326  0.99106724  0.55076412    -0.69600
O732        O  0.22315488  0.56689764  0.48518647    -0.60900
O733        O  0.18504495  0.99135605  0.55106755    -0.73400
O734        O  0.31878915  0.56653767  0.48493029    -0.72200
Cu735      Cu  0.21371264  0.95361715  0.48057411     1.04600
Cu736      Cu  0.25302948  0.53106681  0.51961612     1.04300
C737        C  0.31885466  0.54186472  0.45390402     0.94100
C738        C  0.14789195  0.94282369  0.54628384     0.93300
C739        C  0.19798597  0.54224541  0.45421127     0.85400
C740        C  0.26875057  0.94243612  0.54598615     0.91700
O741        O  0.48213387  0.78987835  0.44941778    -0.72100
O742        O  0.05792311  0.73213212  0.51501765    -0.73000
O743        O  0.48238678  0.69401379  0.44912141    -0.61700
O744        O  0.05759474  0.82775507  0.51526842    -0.70100
O745        O  0.48436071  0.79068478  0.55107173    -0.69600
O746        O  0.40914660  0.65694605  0.48491778    -0.60900
O747        O  0.48460813  0.69481737  0.55075992    -0.73400
O748        O  0.40882327  0.75257361  0.48516417    -0.72200
Cu749      Cu  0.02211353  0.76201594  0.48057800     1.04600
Cu750      Cu  0.44463018  0.72268523  0.51960683     1.04300
C751        C  0.43349281  0.77773141  0.45419035     0.94100
C752        C  0.03324995  0.70696640  0.54598717     0.93300
C753        C  0.43383847  0.65687299  0.45390099     0.85400
C754        C  0.03290979  0.82782400  0.54629092     0.91700
O755        O  0.24429369  0.82755671  0.51480402    -0.72100
O756        O  0.18600141  0.69332461  0.44929037    -0.73000
O757        O  0.14813070  0.73139426  0.51480653    -0.61700
O758        O  0.28237167  0.78969735  0.44927083    -0.70100
O759        O  0.31860971  0.75329046  0.48537896    -0.69600
O760        O  0.18436152  0.69497787  0.55091277    -0.60900
O761        O  0.22245340  0.65712822  0.48539644    -0.73400
O762        O  0.28073478  0.79135312  0.55091289    -0.72200
Cu763      Cu  0.21416207  0.76152929  0.48040071     1.04600
Cu764      Cu  0.25257775  0.72315210  0.51979311     1.04300
C765        C  0.26897477  0.82798772  0.54598071     0.94100
C766        C  0.19776986  0.65669585  0.45422230     0.93300
C767        C  0.14770844  0.70672220  0.54598028     0.85400
C768        C  0.31902467  0.77795273  0.45420012     0.91700
C769        C  0.65980162  0.10420525  0.35040395     0.03200
C770        C  0.65991138  0.05611095  0.35038488     0.03100
C771        C  0.67679913  0.04144911  0.38414465    -0.17400
C772        C  0.68704494  0.06915825  0.42051678     0.03200
C773        C  0.68693552  0.11870624  0.42052208     0.03100
C774        C  0.67662527  0.13596191  0.38413778    -0.17400
H775        H  0.67658174  0.17305608  0.38229040     0.05200
H776        H  0.67688207  0.50438877  0.38232676     0.05200
C777        C  0.65985358  0.10428259  0.14979786     0.03200
C778        C  0.65994458  0.05617763  0.14981521     0.03100
C779        C  0.67682709  0.04151208  0.11605303    -0.17400
C780        C  0.68709282  0.06923118  0.07968234     0.03200
C781        C  0.68699759  0.11878591  0.07967735     0.03100
C782        C  0.67668896  0.13604286  0.11606297    -0.17400
H783        H  0.67665508  0.17314184  0.11790918     0.05200
H784        H  0.67690822  0.00443396  0.11786408     0.05200
N785        N  0.54789705  0.42789582  0.31042072    -0.35700
N786        N  0.61733673  0.49843738  0.25009530    -0.56300
N787        N  0.54792168  0.42794653  0.18976641    -0.35700
N788        N  0.97743715  0.35844925  0.25009017    -0.56300
C789        C  0.57847463  0.47220626  0.33180229     0.27900
C790        C  0.50358059  0.39728680  0.33179876     0.27900
C791        C  0.57849521  0.47226664  0.16839116     0.27900
C792        C  0.50361246  0.39733758  0.16838425     0.27900
C793        C  0.64896473  0.01813551  0.28204912     0.36500
C794        C  0.64897479  0.01817134  0.21815066     0.36500
C795        C  0.95769332  0.32683116  0.28203442     0.36500
C796        C  0.95771843  0.32685186  0.21813460     0.36500
C797        C  0.55415104  0.46870550  0.36777458    -0.21000
C798        C  0.50704961  0.42158710  0.36777250    -0.21000
C799        C  0.55417365  0.46877474  0.13242003    -0.21000
C800        C  0.50708228  0.42164649  0.13241330    -0.21000
C801        C  0.70136560  0.04924519  0.27051380    -0.22100
C802        C  0.70137245  0.04926632  0.22969664    -0.22100
C803        C  0.92656701  0.27445205  0.27048396    -0.22100
C804        C  0.92658222  0.27446550  0.22966655    -0.22100
C805        C  0.62919576  0.01398947  0.32058986    -0.17400
C806        C  0.96181021  0.34658402  0.32057649    -0.17400
C807        C  0.96185024  0.34662679  0.17959845    -0.17400
C808        C  0.62921565  0.01405196  0.17960918    -0.17400
H809        H  0.56936211  0.49597171  0.39234921     0.17900
H810        H  0.97977386  0.40635152  0.39234479     0.15500
H811        H  0.56938150  0.49605262  0.10785177     0.15500
H812        H  0.97981602  0.40640935  0.10783573     0.15500
H813        H  0.73507107  0.07259041  0.28951682     0.13800
H814        H  0.73508505  0.07262746  0.21070340     0.13800
H815        H  0.90318094  0.24075082  0.28947441     0.13800
H816        H  0.90320716  0.24077755  0.21066227     0.13800
H817        H  0.55908146  0.41674748  0.28462857     0.27000
H818        H  0.55910118  0.41678566  0.21555498     0.27000
C819        C  0.87163394  0.31609134  0.14977787     0.03200
C820        C  0.91971185  0.31592370  0.14980950     0.03100
C821        C  0.93436444  0.29901726  0.11605568    -0.17400
C822        C  0.90665495  0.28878801  0.07968209     0.03200
C823        C  0.85710809  0.28892506  0.07967120     0.03100
C824        C  0.83986834  0.29927912  0.11604584    -0.17400
H825        H  0.80278178  0.29935817  0.11788776     0.05200
H826        H  0.97143078  0.29889308  0.11787310     0.05200
C827        C  0.91966165  0.31586736  0.35036218     0.03200
C828        C  0.87157167  0.31601467  0.35038658     0.03100
C829        C  0.83979852  0.29919171  0.38411899    -0.17400
C830        C  0.85703597  0.28884061  0.42049801     0.03200
C831        C  0.90658645  0.28871110  0.42049064     0.03100
C832        C  0.93430964  0.29895987  0.38411999    -0.17400
H833        H  0.97138237  0.29884793  0.38230844     0.05200
H834        H  0.80270892  0.29926464  0.38227661     0.05200
C835        C  0.87211142  0.05545324  0.14981444     0.03200
C836        C  0.92045678  0.10385282  0.14982449     0.03100
C837        C  0.93526517  0.13573235  0.11616417    -0.17400
C838        C  0.90716859  0.11858725  0.07991236     0.03200
C839        C  0.85733876  0.06872596  0.07990849     0.03100
C840        C  0.84023011  0.04061010  0.11615141    -0.17400
H841        H  0.80300137  0.50322716  0.11794485     0.05200
H842        H  0.97260655  0.17297103  0.11796521     0.05200
C843        C  0.87204967  0.05537446  0.35038461     0.03200
C844        C  0.92040230  0.10376561  0.35037815     0.03100
C845        C  0.93521078  0.13564028  0.38403855    -0.17400
C846        C  0.90710616  0.11849742  0.42028701     0.03200
C847        C  0.85727472  0.06863823  0.42029074     0.03100
C848        C  0.84016488  0.04052855  0.38404629    -0.17400
H849        H  0.80292861  0.50314953  0.38225392     0.05200
H850        H  0.97255550  0.17287560  0.38223845     0.05200
N851        N  0.54821639  0.12005808  0.18978279    -0.35700
N852        N  0.61735195  0.11908366  0.25010046    -0.56300
N853        N  0.54815905  0.11996356  0.31041713    -0.35700
N854        N  0.97800963  0.11896198  0.25010297    -0.56300
C855        C  0.57860107  0.10636215  0.16838953     0.27900
C856        C  0.50402113  0.10634886  0.16837108     0.27900
C857        C  0.57853889  0.10625706  0.33180496     0.27900
C858        C  0.50395786  0.10624245  0.33182508     0.27900
C859        C  0.64894088  0.13094732  0.21816987     0.36500
C860        C  0.64891624  0.13091039  0.28204198     0.36500
C861        C  0.95840400  0.13082828  0.21816087     0.36500
C862        C  0.95837703  0.13078579  0.28205083     0.36500
C863        C  0.55427410  0.08554397  0.13237707    -0.21000
C864        C  0.50737846  0.08556538  0.13235840    -0.21000
C865        C  0.55420181  0.08541742  0.36781106    -0.21000
C866        C  0.50730490  0.08543729  0.36783051    -0.21000
C867        C  0.70125163  0.15208649  0.22971481    -0.22100
C868        C  0.70123613  0.15206446  0.27051612    -0.22100
C869        C  0.92742530  0.15197810  0.22970676    -0.22100
C870        C  0.92741003  0.15195342  0.27051567    -0.22100
C871        C  0.62917028  0.11536964  0.17962364    -0.17400
C872        C  0.96248146  0.11525727  0.17960543    -0.17400
C873        C  0.96242875  0.11517060  0.32059741    -0.17400
C874        C  0.62911869  0.11528807  0.32057722    -0.17400
H875        H  0.56936557  0.07351568  0.10778755     0.15500
H876        H  0.98018141  0.07359006  0.10774915     0.15500
H877        H  0.56929249  0.07338648  0.39239947     0.15500
H878        H  0.98010557  0.07345672  0.39243831     0.15500
H879        H  0.73483088  0.16220674  0.21071973     0.13800
H880        H  0.73480146  0.16216542  0.28952231     0.13800
H881        H  0.90417426  0.16225427  0.21071002     0.13800
H882        H  0.90414778  0.16221056  0.28951668     0.13800
H883        H  0.55949640  0.14244345  0.21559599     0.27000
H884        H  0.55945279  0.14237251  0.28461560     0.27000
N885        N  0.85586747  0.42767392  0.31041087    -0.35700
N886        N  0.85702412  0.99789883  0.25009420    -0.56300
N887        N  0.85593535  0.42774266  0.18977265    -0.35700
N888        N  0.85682028  0.35855741  0.25008551    -0.56300
C889        C  0.86957608  0.47184893  0.33183120     0.27900
C890        C  0.86953892  0.39727666  0.33180555     0.27900
C891        C  0.86965511  0.47193017  0.16836316     0.27900
C892        C  0.86961109  0.39735307  0.16837418     0.27900
C893        C  0.84512992  0.01747210  0.28203944     0.36500
C894        C  0.84516470  0.01750942  0.21815237     0.36500
C895        C  0.84493831  0.32696895  0.28201347     0.36500
C896        C  0.84496151  0.32700037  0.21814213     0.36500
C897        C  0.89033710  0.46846867  0.36785019    -0.21000
C898        C  0.89034141  0.42157664  0.36782753    -0.21000
C899        C  0.89043032  0.46856670  0.13234667    -0.21000
C900        C  0.89042695  0.42167014  0.13235899    -0.21000
C901        C  0.82393500  0.04841023  0.27050207    -0.22100
C902        C  0.82395497  0.04843231  0.22969439    -0.22100
C903        C  0.82376155  0.27467068  0.27046498    -0.22100
C904        C  0.82377577  0.27469064  0.22966438    -0.22100
C905        C  0.86069130  0.01338490  0.32059548    -0.17400
C906        C  0.86051501  0.34671885  0.32056366    -0.17400
C907        C  0.86057225  0.34678480  0.17960371    -0.17400
C908        C  0.86075629  0.01345453  0.17959902    -0.17400
H909        H  0.90230181  0.49564399  0.39246748     0.15500
H910        H  0.90234205  0.40646835  0.39242210     0.15500
H911        H  0.90240303  0.49575307  0.10773585     0.15500
H912        H  0.90242411  0.40656719  0.10775949     0.15500
H913        H  0.81361880  0.07162024  0.28950483     0.13800
H914        H  0.81365272  0.07165930  0.21069771     0.13800
H915        H  0.81361160  0.24109289  0.28945827     0.13800
H916        H  0.81363936  0.24113125  0.21065403     0.13800
H917        H  0.83348890  0.41641387  0.28459176     0.27000
H918        H  0.83354129  0.41646403  0.21558396     0.27000
C919        C  0.54714842  0.16889331  0.85036196     0.03200
C920        C  0.59522556  0.16872074  0.85039100     0.03100
C921        C  0.62699558  0.18553305  0.88412487    -0.17400
C922        C  0.60977008  0.19590811  0.92049966     0.03200
C923        C  0.56022867  0.19605478  0.92048933     0.03100
C924        C  0.53250929  0.18581366  0.88411745    -0.17400
H925        H  0.99544504  0.18594214  0.88230359     0.05200
H926        H  0.66407605  0.18544185  0.88228510     0.05200
C927        C  0.54644943  0.38100532  0.85036790     0.03200
C928        C  0.59480312  0.42939586  0.85037560     0.03100
C929        C  0.62668311  0.44424068  0.88403990    -0.17400
C930        C  0.60956394  0.41613286  0.92028488     0.03200
C931        C  0.55973372  0.36627308  0.92027842     0.03100
C932        C  0.53163805  0.34912766  0.88402697    -0.17400
H933        H  0.99429378  0.31189192  0.88222520     0.05200
H934        H  0.66389410  0.48160996  0.88224525     0.05200
C935        C  0.80688287  0.42866542  0.85038752     0.03200
C936        C  0.80706468  0.38060787  0.85041780     0.03100
C937        C  0.79026545  0.34885423  0.88415346    -0.17400
C938        C  0.77990921  0.36608316  0.92053201     0.03200
C939        C  0.77976290  0.41561299  0.92052317     0.03100
C940        C  0.78997155  0.44330615  0.88414584    -0.17400
H941        H  0.78983142  0.48035417  0.88232790     0.05200
H942        H  0.79035380  0.31178276  0.88230922     0.05200
C943        C  0.54637559  0.38092847  0.64981917     0.03200
C944        C  0.59472022  0.42932796  0.64980713     0.03100
C945        C  0.62659451  0.44417327  0.61614109    -0.17400
C946        C  0.60947918  0.41605542  0.57989955     0.03200
C947        C  0.55965372  0.36619173  0.57990788     0.03100
C948        C  0.53156380  0.34904588  0.61616140    -0.17400
H949        H  0.99422388  0.31180598  0.61796537     0.05200
H950        H  0.66380023  0.48154783  0.61793313     0.05200
N951        N  0.61095843  0.05708298  0.81040529    -0.35700
N952        N  0.60996801  0.12618767  0.75008779    -0.56300
N953        N  0.61088084  0.05702329  0.68977242    -0.35700
N954        N  0.60983155  0.48688801  0.75008867    -0.56300
C955        C  0.59726127  0.08746105  0.83179932     0.27900
C956        C  0.59726473  0.01290882  0.83182227     0.27900
C957        C  0.59717859  0.08739810  0.66838137     0.27900
C958        C  0.59717182  0.01284086  0.66836066     0.27900
C959        C  0.62186157  0.15777454  0.78201690     0.36500
C960        C  0.62183702  0.15774926  0.71814652     0.36500
C961        C  0.62172325  0.46730849  0.78203177     0.36500
C962        C  0.62167994  0.46727384  0.71814359     0.36500
C963        C  0.57645265  0.06314877  0.86781616    -0.21000
C964        C  0.57648846  0.01627257  0.86783888    -0.21000
C965        C  0.57635079  0.06307555  0.63237029    -0.21000
C966        C  0.57637630  0.01619387  0.63235021    -0.21000
C967        C  0.64305818  0.21007712  0.77047181    -0.22100
C968        C  0.64304323  0.21006104  0.72967074    -0.22100
C969        C  0.64290676  0.43636260  0.77048928    -0.22100
C970        C  0.64288171  0.43634260  0.72968142    -0.22100
C971        C  0.60627895  0.13801866  0.82056424    -0.17400
C972        C  0.60615963  0.47138912  0.82058925    -0.17400
C973        C  0.60607567  0.47132480  0.67959282    -0.17400
C974        C  0.60621897  0.13796597  0.67960947    -0.17400
H975        H  0.56443262  0.07824207  0.89240865     0.15500
H976        H  0.56453745  0.98909936  0.89245652     0.15500
H977        H  0.56433313  0.07816935  0.60777681     0.15500
H978        H  0.56441320  0.98901353  0.60773662     0.15500
H979        H  0.65322557  0.24365719  0.78946716     0.13800
H980        H  0.65319608  0.24362611  0.71066199     0.13800
H981        H  0.65321113  0.41314081  0.78948906     0.13800
H982        H  0.65316742  0.41310602  0.71068172     0.13800
H983        H  0.63334603  0.06835827  0.78459039     0.27000
H984        H  0.63328893  0.06831306  0.71557723     0.27000
C985        C  0.59516506  0.16866205  0.64978188     0.03200
C986        C  0.54709054  0.16883665  0.64980968     0.03100
C987        C  0.53244965  0.18575354  0.61605597    -0.17400
C988        C  0.56016329  0.19598222  0.57968451     0.03200
C989        C  0.60970308  0.19583173  0.57967520     0.03100
C990        C  0.62693313  0.18546698  0.61605022    -0.17400
H991        H  0.66401404  0.18537696  0.61789306     0.05200
H992        H  0.99538870  0.18588857  0.61787201     0.05200
C993        C  0.80699254  0.38052906  0.64979866     0.03200
C994        C  0.80682714  0.42859655  0.64982254     0.03100
C995        C  0.78991149  0.44323006  0.61606118    -0.17400
C996        C  0.77968615  0.41552452  0.57968656     0.03200
C997        C  0.77982920  0.36599296  0.57968019     0.03100
C998        C  0.79018395  0.34876739  0.61606286    -0.17400
H999        H  0.79026902  0.31169432  0.61790739     0.05200
H1000       H  0.78978002  0.48028264  0.61787396     0.05200
N1001       N  0.91885165  0.05684372  0.68976484    -0.35700
N1002       N  0.84939815  0.48637410  0.75009895    -0.56300
N1003       N  0.91889419  0.05689106  0.81042425    -0.35700
N1004       N  0.98936344  0.12632244  0.75009035    -0.56300
C1005       C  0.88826665  0.01252592  0.66838958     0.27900
C1006       C  0.96316395  0.08744280  0.66838148     0.27900
C1007       C  0.88831128  0.01258311  0.83180681     0.27900
C1008       C  0.96321490  0.08749153  0.83180108     0.27900
C1009       C  0.81777447  0.46661412  0.71815433     0.36500
C1010       C  0.81779402  0.46664676  0.78205490     0.36500
C1011       C  0.50909001  0.15791849  0.71813472     0.36500
C1012       C  0.50912047  0.15793958  0.78203398     0.36500
C1013       C  0.91258213  0.01601394  0.63241633    -0.21000
C1014       C  0.95968220  0.06313314  0.63240914    -0.21000
C1015       C  0.91263505  0.01607911  0.86777868    -0.21000
C1016       C  0.95974227  0.06319052  0.86777528    -0.21000
C1017       C  0.76538504  0.43547060  0.72970511    -0.22100
C1018       C  0.76539786  0.43549027  0.77052249    -0.22100
C1019       C  0.54024495  0.21030269  0.72966603    -0.22100
C1020       C  0.54026332  0.21031635  0.77048307    -0.22100
C1021       C  0.83753587  0.47073990  0.67961156    -0.17400
C1022       C  0.50494627  0.13814269  0.67959803    -0.17400
C1023       C  0.50499678  0.13818610  0.82057643    -0.17400
C1024       C  0.83757609  0.47079589  0.82059309    -0.17400
H1025       H  0.89736923  0.98873406  0.60784942     0.15500
H1026       H  0.98695126  0.07836067  0.60783276     0.15500
H1027       H  0.89742342  0.98880997  0.89235200     0.15500
H1028       H  0.98702343  0.07841862  0.89234493     0.15500
H1029       H  0.73168031  0.41206989  0.71071509     0.13800
H1030       H  0.73170589  0.41210445  0.78952687     0.13800
H1031       H  0.56362763  0.24398847  0.71066145     0.13800
H1032       H  0.56366000  0.24401523  0.78947291     0.13800
H1033       H  0.90768450  0.06800710  0.71555774     0.27000
H1034       H  0.90771495  0.06804260  0.78463119     0.27000
N1035       N  0.91864560  0.36478169  0.68978546    -0.35700
N1036       N  0.84954144  0.36580941  0.75010653    -0.56300
N1037       N  0.91871076  0.36486300  0.81041711    -0.35700
N1038       N  0.98883709  0.36583046  0.75009797    -0.56300
C1039       C  0.88826905  0.37849024  0.66839399     0.27900
C1040       C  0.96282805  0.37846218  0.66836724     0.27900
C1041       C  0.88834237  0.37857943  0.83180968     0.27900
C1042       C  0.96290505  0.37855667  0.83182520     0.27900
C1043       C  0.81794280  0.35391072  0.71817814     0.36500
C1044       C  0.81797252  0.35394210  0.78204896     0.36500
C1045       C  0.50843227  0.35395752  0.71815348     0.36500
C1046       C  0.50846694  0.35399793  0.78204326     0.36500
C1047       C  0.91259047  0.39929555  0.63237808    -0.21000
C1048       C  0.95946942  0.39924049  0.63235189    -0.21000
C1049       C  0.91268076  0.39940293  0.86781778    -0.21000
C1050       C  0.95956327  0.39935372  0.86783609    -0.21000
C1051       C  0.76562603  0.33271502  0.72972501    -0.22100
C1052       C  0.76564476  0.33273377  0.77052628    -0.22100
C1053       C  0.53940335  0.33279678  0.72969513    -0.22100
C1054       C  0.53942373  0.33282035  0.77050391    -0.22100
C1055       C  0.83770089  0.36948175  0.67962906    -0.17400
C1056       C  0.50435442  0.36953138  0.67959903    -0.17400
C1057       C  0.50442176  0.36961141  0.82059184    -0.17400
C1058       C  0.83776373  0.36955419  0.82058578    -0.17400
H1059       H  0.89750201  0.41132986  0.60778970     0.15500
H1060       H  0.98664994  0.41118419  0.60773418     0.15500
H1061       H  0.89759759  0.41143722  0.89240903     0.15500
H1062       H  0.98675342  0.41130581  0.89244816     0.15500
H1063       H  0.73203382  0.32254402  0.71073076     0.13800
H1064       H  0.73206943  0.32257899  0.78953545     0.13800
H1065       H  0.56264457  0.32251138  0.71069556     0.13800
H1066       H  0.56268107  0.32255323  0.78950201     0.13800
H1067       H  0.90736182  0.34239914  0.71559997     0.27000
H1068       H  0.90740933  0.34246078  0.78461252     0.27000
O1069       O  0.64819314  0.23146126  0.98537948    -0.72100
O1070       O  0.78244290  0.28977808  0.05090529    -0.73000
O1071       O  0.74434196  0.32763759  0.98540188    -0.61700
O1072       O  0.68608158  0.19339729  0.05090162    -0.70100
O1073       O  0.72253856  0.15720957  0.01479281    -0.69600
O1074       O  0.78079963  0.29145149  0.94929198    -0.60900
O1075       O  0.81868719  0.25337903  0.01479533    -0.73400
O1076       O  0.68443999  0.19506408  0.94927135    -0.72200
Cu1077     Cu  0.71422624  0.26160297  0.01979004     1.04600
Cu1078     Cu  0.75265330  0.22324054  0.98039443     1.04300
C1079       C  0.64778112  0.20679973  0.95420162     0.94100
C1080       C  0.81910109  0.27804149  0.04597172     0.93300
C1081       C  0.76903210  0.32808039  0.95422866     0.85400
C1082       C  0.69785825  0.15677442  0.04597085     0.91700
O1083       O  0.98248001  0.19410653  0.05107410    -0.72100
O1084       O  0.55766139  0.32783423  0.98490905    -0.73000
O1085       O  0.98221042  0.28996424  0.05076073    -0.61700
O1086       O  0.55800159  0.23221566  0.98515699    -0.70100
O1087       O  0.98468449  0.19489308  0.94941765    -0.69600
O1088       O  0.90889738  0.25264315  0.01501586    -0.60900
O1089       O  0.98442271  0.29075314  0.94911082    -0.73400
O1090       O  0.90923964  0.15702581  0.01527803    -0.72200
Cu1091     Cu  0.52219352  0.26210161  0.01960322     1.04600
Cu1092     Cu  0.94470698  0.22275768  0.98057779     1.04300
C1093       C  0.93393259  0.15696181  0.04629770     0.94100
C1094       C  0.53296885  0.32789889  0.95389014     0.93300
C1095       C  0.93356660  0.27780912  0.04598654     0.85400
C1096       C  0.53332783  0.20704680  0.95418741     0.91700
O1097       O  0.74363754  0.41788033  0.98519966    -0.72100
O1098       O  0.68588536  0.49369412  0.05076507    -0.73000
O1099       O  0.64800278  0.41823409  0.98492780    -0.61700
O1100       O  0.78176631  0.49342528  0.05108630    -0.70100
O1101       O  0.81888586  0.06662937  0.01527195    -0.69600
O1102       O  0.68508977  0.49144166  0.94911788    -0.60900
O1103       O  0.72324542  0.06697965  0.01501272    -0.73400
O1104       O  0.78096323  0.49116141  0.94944074    -0.72200
Cu1105     Cu  0.71375164  0.45370614  0.01962375     1.04600
Cu1106     Cu  0.75312994  0.03115637  0.98058204     1.04300
C1107       C  0.76880022  0.44253013  0.95422176     0.94100
C1108       C  0.69807271  0.04232326  0.04598617     0.93300
C1109       C  0.64793985  0.44290716  0.95390052     0.85400
C1110       C  0.81895083  0.04195651  0.04629859     0.91700
O1111       O  0.78169809  0.49333360  0.44911685    -0.72100
O1112       O  0.64792238  0.41814690  0.51526186    -0.73000
O1113       O  0.68582223  0.49361421  0.44943131    -0.61700
O1114       O  0.74355402  0.41778414  0.51500714    -0.70100
O1115       O  0.78087826  0.49106637  0.55076350    -0.69600
O1116       O  0.72318986  0.06689922  0.48518622    -0.60900
O1117       O  0.68501022  0.49135562  0.55106990    -0.73400
O1118       O  0.81882342  0.06653757  0.48492901    -0.72200
Cu1119     Cu  0.71367758  0.45361653  0.48057483     1.04600
Cu1120     Cu  0.75306463  0.03106751  0.51961529     1.04300
C1121       C  0.81888778  0.04186616  0.45390150     0.94100
C1122       C  0.64785771  0.44282313  0.54628618     0.93300
C1123       C  0.69801813  0.04224544  0.45421234     0.85400
C1124       C  0.76871627  0.44243540  0.54598542     0.91700
O1125       O  0.98213414  0.28987834  0.44941891    -0.72100
O1126       O  0.55793285  0.23214257  0.51502129    -0.73000
O1127       O  0.98240827  0.19402392  0.44911921    -0.61700
O1128       O  0.55758129  0.32775467  0.51527530    -0.70100
O1129       O  0.98434304  0.29067084  0.55107367    -0.69600
O1130       O  0.90916574  0.15694161  0.48491277    -0.60900
O1131       O  0.98461555  0.19481528  0.55076085    -0.73400
O1132       O  0.90881901  0.25255783  0.48516019    -0.72200
Cu1133     Cu  0.52211845  0.26202159  0.48058067     1.04600
Cu1134     Cu  0.94463098  0.22267539  0.51960504     1.04300
C1135       C  0.93349073  0.27772432  0.45418942     0.94100
C1136       C  0.53325941  0.20697064  0.54598900     0.93300
C1137       C  0.93386305  0.15687589  0.45389725     0.85400
C1138       C  0.53288898  0.32781722  0.54629518     0.91700
O1139       O  0.74428068  0.32755676  0.51479854    -0.72100
O1140       O  0.68601444  0.19331671  0.44929106    -0.73000
O1141       O  0.64812988  0.23138375  0.51480200    -0.61700
O1142       O  0.78237333  0.28969929  0.44927097    -0.70100
O1143       O  0.81862180  0.25330708  0.48538388    -0.69600
O1144       O  0.68437009  0.19497899  0.55091072    -0.60900
O1145       O  0.72247718  0.15713374  0.48540013    -0.73400
O1146       O  0.78073004  0.29136578  0.55091228    -0.72200
Cu1147     Cu  0.71416211  0.26152465  0.48039811     1.04600
Cu1148     Cu  0.75258806  0.22316179  0.51979484     1.04300
C1149       C  0.76896015  0.32799340  0.54597801     0.94100
C1150       C  0.69779253  0.15669476  0.45422450     0.93300
C1151       C  0.64771308  0.20671736  0.54597732     0.85400
C1152       C  0.81903072  0.27796133  0.45420231     0.91700
C1153       C  0.65976751  0.60420458  0.35040319     0.03200
C1154       C  0.65988858  0.55611594  0.35038217     0.03100
C1155       C  0.67677839  0.54145545  0.38414157    -0.17400
C1156       C  0.68701712  0.56916031  0.42051460     0.03200
C1157       C  0.68690413  0.61870607  0.42052047     0.03100
C1158       C  0.67658725  0.63595960  0.38413779    -0.17400
H1159       H  0.67653710  0.67305049  0.38229210     0.05200
H1160       H  0.67689659  0.00437937  0.38233061     0.05200
C1161       C  0.65980895  0.60427475  0.14979490     0.03200
C1162       C  0.65991788  0.55617889  0.14981514     0.03100
C1163       C  0.67680626  0.54151740  0.11605401    -0.17400
C1164       C  0.68706466  0.56923214  0.07968227     0.03200
C1165       C  0.68695981  0.61878178  0.07967585     0.03100
C1166       C  0.67663742  0.63603270  0.11605892    -0.17400
H1167       H  0.67659179  0.67312584  0.11790316     0.05200
H1168       H  0.67689822  0.50444479  0.11786671     0.05200
N1169       N  0.54790516  0.92789847  0.31042243    -0.35700
N1170       N  0.61734953  0.99843944  0.25009644    -0.56300
N1171       N  0.54792741  0.92795600  0.18976636    -0.35700
N1172       N  0.97743387  0.85846485  0.25008992    -0.56300
C1173       C  0.57848974  0.97220521  0.33180584     0.27900
C1174       C  0.50358831  0.89729214  0.33180114     0.27900
C1175       C  0.57850973  0.97227266  0.16839006     0.27900
C1176       C  0.50361742  0.89735194  0.16838329     0.27900
C1177       C  0.64895064  0.51814152  0.28204759     0.36500
C1178       C  0.64896032  0.51817532  0.21814957     0.36500
C1179       C  0.95769225  0.82684422  0.28203323     0.36500
C1180       C  0.95771630  0.82686847  0.21813361     0.36500
C1181       C  0.55417012  0.96870441  0.36777999    -0.21000
C1182       C  0.50706402  0.92159024  0.36777712    -0.21000
C1183       C  0.55419250  0.96878307  0.13241736    -0.21000
C1184       C  0.50709465  0.92166088  0.13241110    -0.21000
C1185       C  0.70135016  0.54926222  0.27051219    -0.22100
C1186       C  0.70135678  0.54928215  0.22969503    -0.22100
C1187       C  0.92656825  0.77446560  0.27048137    -0.22100
C1188       C  0.92658297  0.77448134  0.22966409    -0.22100
C1189       C  0.62917866  0.51399404  0.32058709    -0.17400
C1190       C  0.96181230  0.84659306  0.32057695    -0.17400
C1191       C  0.96185037  0.84664329  0.17959721    -0.17400
C1192       C  0.62919759  0.51405217  0.17960934    -0.17400
H1193       H  0.56938618  0.99596785  0.39235607     0.17900
H1194       H  0.97978945  0.90635609  0.39235029     0.15500
H1195       H  0.56940748  0.99605733  0.10784734     0.15500
H1196       H  0.97983005  0.90642672  0.10783242     0.15500
H1197       H  0.73505352  0.57261689  0.28951482     0.13800
H1198       H  0.73506697  0.57265132  0.21070168     0.13800
H1199       H  0.90318596  0.74076283  0.28947116     0.13800
H1200       H  0.90321131  0.74079386  0.21065869     0.13800
H1201       H  0.55908445  0.91675011  0.28462786     0.27000
H1202       H  0.55910168  0.91679260  0.21555612     0.27000
C1203       C  0.87162456  0.81607952  0.14977957     0.03200
C1204       C  0.91971487  0.81593641  0.14980639     0.03100
C1205       C  0.93437335  0.79903883  0.11605127    -0.17400
C1206       C  0.90665723  0.78879766  0.07967983     0.03200
C1207       C  0.85710120  0.78891655  0.07967208     0.03100
C1208       C  0.83985592  0.79925852  0.11604891    -0.17400
H1209       H  0.80276177  0.79932240  0.11789301     0.05200
H1210       H  0.97144740  0.79892962  0.11786665     0.05200
C1211       C  0.91966421  0.81587334  0.35036297     0.03200
C1212       C  0.87156768  0.81600768  0.35038451     0.03100
C1213       C  0.83979274  0.79918089  0.38411626    -0.17400
C1214       C  0.85703210  0.78883477  0.42049637     0.03200
C1215       C  0.90658778  0.78871549  0.42049095     0.03100
C1216       C  0.93431426  0.79896963  0.38412142    -0.17400
H1217       H  0.97139094  0.79886524  0.38231104     0.05200
H1218       H  0.80269953  0.79924656  0.38227276     0.05200
C1219       C  0.87208294  0.55545126  0.14981568     0.03200
C1220       C  0.92041980  0.60385939  0.14982887     0.03100
C1221       C  0.93522425  0.63574151  0.11616978    -0.17400
C1222       C  0.90713522  0.61859117  0.07991528     0.03200
C1223       C  0.85730964  0.56872524  0.07990985     0.03100
C1224       C  0.84020363  0.54060489  0.11615155    -0.17400
H1225       H  0.80302281  0.00323738  0.11794654     0.05200
H1226       H  0.97256000  0.67298560  0.11797298     0.05200
C1227       C  0.87202033  0.55536883  0.35038850     0.03200
C1228       C  0.92036784  0.60376490  0.35038048     0.03100
C1229       C  0.93517409  0.63564103  0.38404004    -0.17400
C1230       C  0.90707396  0.61849586  0.42029013     0.03200
C1231       C  0.85724364  0.56863487  0.42029429     0.03100
C1232       C  0.84013617  0.54052162  0.38405059    -0.17400
H1233       H  0.80295444  0.00315912  0.38224888     0.05200
H1234       H  0.97251560  0.67287943  0.38223821     0.05200
N1235       N  0.54817669  0.62005663  0.18978391    -0.35700
N1236       N  0.61730644  0.61906635  0.25009989    -0.56300
N1237       N  0.54812338  0.61996254  0.31041823    -0.35700
N1238       N  0.97798016  0.61897659  0.25010530    -0.56300
C1239       C  0.57855560  0.60635343  0.16839015     0.27900
C1240       C  0.50398317  0.60635498  0.16837249     0.27900
C1241       C  0.57850192  0.60625367  0.33180545     0.27900
C1242       C  0.50392355  0.60624437  0.33182680     0.27900
C1243       C  0.64889482  0.63093560  0.21816842     0.36500
C1244       C  0.64887419  0.63090254  0.28204028     0.36500
C1245       C  0.95836875  0.63083778  0.21816406     0.36500
C1246       C  0.95834190  0.63079149  0.28205425     0.36500
C1247       C  0.55422653  0.58553691  0.13237818    -0.21000
C1248       C  0.50733686  0.58557011  0.13235927    -0.21000
C1249       C  0.55416557  0.58541538  0.36781191    -0.21000
C1250       C  0.50727041  0.58543870  0.36783214    -0.21000
C1251       C  0.70120764  0.65208721  0.22971142    -0.22100
C1252       C  0.70119475  0.65206748  0.27051276    -0.22100
C1253       C  0.92738018  0.65197580  0.22971182    -0.22100
C1254       C  0.92736509  0.65194880  0.27052068    -0.22100
C1255       C  0.62912368  0.61535706  0.17962264    -0.17400
C1256       C  0.96244669  0.61526785  0.17960816    -0.17400
C1257       C  0.96239493  0.61517384  0.32059984    -0.17400
C1258       C  0.62908067  0.61528297  0.32057663    -0.17400
H1259       H  0.56931329  0.57350260  0.10778916     0.15500
H1260       H  0.98014141  0.57360126  0.10774945     0.15500
H1261       H  0.56925558  0.57338310  0.39239999     0.15500
H1262       H  0.98007196  0.57345969  0.39244050     0.15500
H1263       H  0.73478793  0.66221759  0.21071478     0.13800
H1264       H  0.73476348  0.66218036  0.28951816     0.13800
H1265       H  0.90412054  0.66224265  0.21071650     0.13800
H1266       H  0.90409472  0.66219469  0.28952245     0.13800
H1267       H  0.55946028  0.64244202  0.21559707     0.27000
H1268       H  0.55941788  0.64237112  0.28461651     0.27000
N1269       N  0.85587384  0.92767137  0.31040806    -0.35700
N1270       N  0.85701111  0.49789965  0.25009650    -0.56300
N1271       N  0.85593268  0.92773409  0.18977165    -0.35700
N1272       N  0.85680157  0.85854172  0.25008457    -0.56300
C1273       C  0.86959332  0.97185008  0.33182664     0.27900
C1274       C  0.86954143  0.89727081  0.33180214     0.27900
C1275       C  0.86966483  0.97192516  0.16836318     0.27900
C1276       C  0.86960257  0.89733955  0.16837399     0.27900
C1277       C  0.84510794  0.51746533  0.28204206     0.36500
C1278       C  0.84514439  0.51750429  0.21815446     0.36500
C1279       C  0.84492414  0.82695550  0.28201330     0.36500
C1280       C  0.84494300  0.82698403  0.21814173     0.36500
C1281       C  0.89035766  0.96846936  0.36784389    -0.21000
C1282       C  0.89035244  0.92157277  0.36782204    -0.21000
C1283       C  0.89044193  0.96855937  0.13234826    -0.21000
C1284       C  0.89042583  0.92165666  0.13236002    -0.21000
C1285       C  0.82390115  0.54839277  0.27050457    -0.22100
C1286       C  0.82392198  0.54841573  0.22969690    -0.22100
C1287       C  0.82374913  0.77465673  0.27046595    -0.22100
C1288       C  0.82376068  0.77467491  0.22966512    -0.22100
C1289       C  0.86066796  0.51337978  0.32059936    -0.17400
C1290       C  0.86050777  0.84670913  0.32056200    -0.17400
C1291       C  0.86055630  0.84676898  0.17960366    -0.17400
C1292       C  0.86073660  0.51345322  0.17959991    -0.17400
H1293       H  0.90233024  0.99564752  0.39245987     0.15500
H1294       H  0.90235222  0.90646266  0.39241603     0.15500
H1295       H  0.90242548  0.99574954  0.10773914     0.15500
H1296       H  0.90242115  0.90655062  0.10776149     0.15500
H1297       H  0.81357402  0.57159405  0.28950763     0.13800
H1298       H  0.81360964  0.57163488  0.21070019     0.13800
H1299       H  0.81360446  0.74108048  0.28945960     0.13800
H1300       H  0.81362706  0.74111535  0.21065562     0.13800
H1301       H  0.83349043  0.91641173  0.28459123     0.27000
H1302       H  0.83353592  0.91645790  0.21558173     0.27000
C1303       C  0.54712974  0.66888532  0.85036446     0.03200
C1304       C  0.59521506  0.66872888  0.85038939     0.03100
C1305       C  0.62698857  0.68554702  0.88412160    -0.17400
C1306       C  0.60976080  0.69591374  0.92049843     0.03200
C1307       C  0.56021300  0.69604773  0.92049168     0.03100
C1308       C  0.53248793  0.68579935  0.88412170    -0.17400
H1309       H  0.99541866  0.68591806  0.88231022     0.05200
H1310       H  0.66407398  0.68546586  0.88227936     0.05200
C1311       C  0.54648558  0.88100401  0.85036581     0.03200
C1312       C  0.59483800  0.92939601  0.85037466     0.03100
C1313       C  0.62671489  0.94423967  0.88404054    -0.17400
C1314       C  0.60959142  0.91613180  0.92028582     0.03200
C1315       C  0.55976037  0.86627233  0.92027845     0.03100
C1316       C  0.53167175  0.84912500  0.88402453    -0.17400
H1317       H  0.99432887  0.81188820  0.88222103     0.05200
H1318       H  0.66392610  0.98160877  0.88224697     0.05200
C1319       C  0.80691713  0.92866512  0.85038705     0.03200
C1320       C  0.80710259  0.88060950  0.85041836     0.03100
C1321       C  0.79030290  0.84885694  0.88415442    -0.17400
C1322       C  0.77993639  0.86608306  0.92053054     0.03200
C1323       C  0.77979055  0.91561290  0.92052088     0.03100
C1324       C  0.79000307  0.94330612  0.88414383    -0.17400
H1325       H  0.78986248  0.98035392  0.88232486     0.05200
H1326       H  0.79039482  0.81178723  0.88231193     0.05200
C1327       C  0.54641373  0.88093301  0.64981746     0.03200
C1328       C  0.59475854  0.92933226  0.64980520     0.03100
C1329       C  0.62663144  0.94417537  0.61613857    -0.17400
C1330       C  0.60951305  0.91605756  0.57989670     0.03200
C1331       C  0.55968491  0.86619591  0.57990467     0.03100
C1332       C  0.53159957  0.84904980  0.61615984    -0.17400
H1333       H  0.99425972  0.81181002  0.61796514     0.05200
H1334       H  0.66383832  0.98154881  0.61793042     0.05200
N1335       N  0.61093832  0.55708644  0.81040537    -0.35700
N1336       N  0.60996239  0.62619755  0.75008875    -0.56300
N1337       N  0.61085478  0.55702204  0.68977520    -0.35700
N1338       N  0.60986424  0.98689118  0.75008728    -0.56300
C1339       C  0.59724583  0.58746836  0.83179883     0.27900
C1340       C  0.59723631  0.51291012  0.83182183     0.27900
C1341       C  0.59715722  0.58740051  0.66838459     0.27900
C1342       C  0.59713745  0.51283720  0.66836433     0.27900
C1343       C  0.62185715  0.65778499  0.78201738     0.36500
C1344       C  0.62183099  0.65775796  0.71814712     0.36500
C1345       C  0.62175955  0.96731459  0.78203069     0.36500
C1346       C  0.62171864  0.96728221  0.71814179     0.36500
C1347       C  0.57643224  0.56315634  0.86781490    -0.21000
C1348       C  0.57645918  0.51627581  0.86783749    -0.21000
C1349       C  0.57632332  0.56307738  0.63237467    -0.21000
C1350       C  0.57634054  0.51619165  0.63235498    -0.21000
C1351       C  0.64305477  0.71008768  0.77047171    -0.22100
C1352       C  0.64303880  0.71007048  0.72967056    -0.22100
C1353       C  0.64295173  0.93637645  0.77048788    -0.22100
C1354       C  0.64292817  0.93635786  0.72967980    -0.22100
C1355       C  0.60627105  0.63802846  0.82056400    -0.17400
C1356       C  0.60619355  0.97139124  0.82058887    -0.17400
C1357       C  0.60611383  0.97133095  0.67959020    -0.17400
C1358       C  0.60620778  0.63797217  0.67961134    -0.17400
H1359       H  0.56441486  0.57825272  0.89240702     0.15500
H1360       H  0.56450214  0.48910091  0.89245436     0.15500
H1361       H  0.56430818  0.57817390  0.60778146     0.15500
H1362       H  0.56437270  0.48901014  0.60774187     0.15500
H1363       H  0.65322255  0.74366863  0.78946645     0.13800
H1364       H  0.65319093  0.74363542  0.71066160     0.13800
H1365       H  0.65326191  0.91315926  0.78948760     0.13800
H1366       H  0.65322102  0.91312717  0.71067988     0.13800
H1367       H  0.63332852  0.56835999  0.78459169     0.27000
H1368       H  0.63326676  0.56831122  0.71557820     0.27000
C1369       C  0.59515394  0.66866723  0.64978413     0.03200
C1370       C  0.54707411  0.66883135  0.64980841     0.03100
C1371       C  0.53243387  0.68574581  0.61605349    -0.17400
C1372       C  0.56015227  0.69597882  0.57968367     0.03200
C1373       C  0.60969586  0.69583569  0.57967715     0.03100
C1374       C  0.62692539  0.68547506  0.61605382    -0.17400
H1375       H  0.66400887  0.68539017  0.61789865     0.05200
H1376       H  0.99537036  0.68587591  0.61786762     0.05200
C1377       C  0.80702634  0.88052550  0.64979881     0.03200
C1378       C  0.80686134  0.92859318  0.64982305     0.03100
C1379       C  0.78994702  0.94322925  0.61606213    -0.17400
C1380       C  0.77971882  0.91552383  0.57968775     0.03200
C1381       C  0.77985697  0.86599017  0.57968175     0.03100
C1382       C  0.79021601  0.84876465  0.61606290    -0.17400
H1383       H  0.79030064  0.81169122  0.61790631     0.05200
H1384       H  0.78981805  0.98028313  0.61787512     0.05200
N1385       N  0.91882676  0.55684463  0.68976312    -0.35700
N1386       N  0.84942764  0.98637147  0.75009911    -0.56300
N1387       N  0.91887085  0.55688732  0.81042522    -0.35700
N1388       N  0.98934770  0.62631263  0.75009040    -0.56300
C1389       C  0.88823578  0.51252908  0.66838711     0.27900
C1390       C  0.96313992  0.58744023  0.66837927     0.27900
C1391       C  0.88828206  0.51258133  0.83180826     0.27900
C1392       C  0.96319241  0.58748406  0.83180251     0.27900
C1393       C  0.81780487  0.96660632  0.71815483     0.36500
C1394       C  0.81782404  0.96664111  0.78205469     0.36500
C1395       C  0.50907525  0.65790976  0.71813513     0.36500
C1396       C  0.50910548  0.65792923  0.78203448     0.36500
C1397       C  0.91254821  0.51601590  0.63241258    -0.21000
C1398       C  0.95965255  0.56313118  0.63240570    -0.21000
C1399       C  0.91260325  0.51607525  0.86778102    -0.21000
C1400       C  0.95971474  0.56318271  0.86777746    -0.21000
C1401       C  0.76541620  0.93545591  0.72970528    -0.22100
C1402       C  0.76542878  0.93547681  0.77052248    -0.22100
C1403       C  0.54023116  0.71029321  0.72966723    -0.22100
C1404       C  0.54024936  0.71030590  0.77048415    -0.22100
C1405       C  0.83756801  0.97073441  0.67961286    -0.17400
C1406       C  0.50492876  0.63813639  0.67959719    -0.17400
C1407       C  0.50497907  0.63817639  0.82057763    -0.17400
C1408       C  0.83760743  0.97079418  0.82059230    -0.17400
H1409       H  0.89733148  0.48873728  0.60784507     0.15500
H1410       H  0.98692135  0.57835608  0.60782903     0.15500
H1411       H  0.89738758  0.48880770  0.89235499     0.15500
H1412       H  0.98699520  0.57840799  0.89234758     0.15500
H1413       H  0.73171283  0.91204962  0.71071540     0.13800
H1414       H  0.73173799  0.91208642  0.78952680     0.13800
H1415       H  0.56361353  0.74397915  0.71066287     0.13800
H1416       H  0.56364562  0.74400394  0.78947455     0.13800
H1417       H  0.90766411  0.56800863  0.71555795     0.27000
H1418       H  0.90769563  0.56804066  0.78463109     0.27000
N1419       N  0.91868291  0.86478218  0.68978444    -0.35700
N1420       N  0.84958009  0.86581264  0.75010629    -0.56300
N1421       N  0.91874838  0.86486384  0.81041615    -0.35700
N1422       N  0.98887304  0.86582860  0.75009641    -0.56300
C1423       C  0.88830464  0.87848839  0.66839287     0.27900
C1424       C  0.96286591  0.87846481  0.66836631     0.27900
C1425       C  0.88838101  0.87858137  0.83180913     0.27900
C1426       C  0.96294247  0.87855628  0.83182388     0.27900
C1427       C  0.81797976  0.85390659  0.71817811     0.36500
C1428       C  0.81801104  0.85394134  0.78204920     0.36500
C1429       C  0.50847366  0.85396264  0.71815172     0.36500
C1430       C  0.50850654  0.85399985  0.78204121     0.36500
C1431       C  0.91262525  0.89929397  0.63237680    -0.21000
C1432       C  0.95950603  0.89924237  0.63235087    -0.21000
C1433       C  0.91271987  0.89940473  0.86781700    -0.21000
C1434       C  0.95960139  0.89935351  0.86783508    -0.21000
C1435       C  0.76566212  0.83270206  0.72972567    -0.22100
C1436       C  0.76568185  0.83272287  0.77052710    -0.22100
C1437       C  0.53945237  0.83281033  0.72969276    -0.22100
C1438       C  0.53947165  0.83283192  0.77050134    -0.22100
C1439       C  0.83773589  0.86947785  0.67962844    -0.17400
C1440       C  0.50439384  0.86953625  0.67959785    -0.17400
C1441       C  0.50445894  0.86961089  0.82058990    -0.17400
C1442       C  0.83780217  0.86955581  0.82058595    -0.17400
H1443       H  0.89753516  0.91132612  0.60778822     0.15500
H1444       H  0.98668686  0.91118776  0.60773334     0.15500
H1445       H  0.89763741  0.91143987  0.89240823     0.15500
H1446       H  0.98679131  0.91130461  0.89244711     0.15500
H1447       H  0.73206765  0.82252155  0.71073149     0.13800
H1448       H  0.73210511  0.82255999  0.78953684     0.13800
H1449       H  0.56270076  0.82253408  0.71069316     0.13800
H1450       H  0.56273541  0.82257252  0.78949896     0.13800
H1451       H  0.90739973  0.84239974  0.71559903     0.27000
H1452       H  0.90744635  0.84246150  0.78461162     0.27000
O1453       O  0.64819205  0.73147372  0.98537542    -0.72100
O1454       O  0.78243937  0.78977511  0.05090487    -0.73000
O1455       O  0.74435361  0.82763941  0.98539684    -0.61700
O1456       O  0.68606633  0.69340436  0.05090077    -0.70100
O1457       O  0.72251158  0.65720283  0.01479440    -0.69600
O1458       O  0.78080193  0.79144022  0.94929132    -0.60900
O1459       O  0.81867282  0.75336159  0.01479891    -0.73400
O1460       O  0.68442878  0.69506440  0.94926952    -0.72200
Cu1461     Cu  0.71422445  0.76160811  0.01978726     1.04600
Cu1462     Cu  0.75264040  0.72323122  0.98039530     1.04300
C1463       C  0.64777414  0.70680627  0.95419923     0.94100
C1464       C  0.81909272  0.77803135  0.04597299     0.93300
C1465       C  0.76904495  0.82807653  0.95422608     0.85400
C1466       C  0.69783188  0.65677369  0.04597080     0.91700
O1467       O  0.98245754  0.69410020  0.05107611    -0.72100
O1468       O  0.55767092  0.82783162  0.98491286    -0.73000
O1469       O  0.98221015  0.78996807  0.05075995    -0.61700
O1470       O  0.55798740  0.73220203  0.98516202    -0.70100
O1471       O  0.98467213  0.69489067  0.94942056    -0.69600
O1472       O  0.90890036  0.75266022  0.01501144    -0.60900
O1473       O  0.98443567  0.79076269  0.94911041    -0.73400
O1474       O  0.90921917  0.65703197  0.01527766    -0.72200
Cu1475     Cu  0.52218639  0.76209641  0.01960592     1.04600
Cu1476     Cu  0.94470299  0.72276577  0.98057709     1.04300
C1477       C  0.93390690  0.65696263  0.04629910     0.94100
C1478       C  0.53298510  0.82790145  0.95389141     0.93300
C1479       C  0.93356867  0.77781989  0.04598407     0.85400
C1480       C  0.53331356  0.70703852  0.95419094     0.91700
O1481       O  0.74366557  0.91788146  0.98519783    -0.72100
O1482       O  0.68591322  0.99369343  0.05076463    -0.73000
O1483       O  0.64802919  0.91823179  0.98492854    -0.61700
O1484       O  0.78179468  0.99342548  0.05108556    -0.70100
O1485       O  0.81885824  0.56663027  0.01527370    -0.69600
O1486       O  0.68511385  0.99144107  0.94912018    -0.60900
O1487       O  0.72321737  0.56697941  0.01501229    -0.73400
O1488       O  0.78098748  0.99116091  0.94943744    -0.72200
Cu1489     Cu  0.71377945  0.95370577  0.01962319     1.04600
Cu1490     Cu  0.75310393  0.53115682  0.98058262     1.04300
C1491       C  0.76882602  0.94253017  0.95421892     0.94100
C1492       C  0.69804507  0.54232392  0.04598620     0.93300
C1493       C  0.64796510  0.94290590  0.95390227     0.85400
C1494       C  0.81892267  0.54195638  0.04629980     0.91700
O1495       O  0.78173205  0.99333471  0.44911450    -0.72100
O1496       O  0.64795701  0.91814598  0.51526060    -0.73000
O1497       O  0.68585584  0.99361456  0.44943229    -0.61700
O1498       O  0.74359017  0.91778612  0.51500687    -0.70100
O1499       O  0.78091338  0.99106726  0.55076410    -0.69600
O1500       O  0.72315476  0.56689763  0.48518647    -0.60900
O1501       O  0.68504499  0.99135602  0.55106757    -0.73400
O1502       O  0.81878916  0.56653766  0.48493030    -0.72200
Cu1503     Cu  0.71371256  0.95361715  0.48057411     1.04600
Cu1504     Cu  0.75302943  0.53106682  0.51961612     1.04300
C1505       C  0.81885467  0.54186472  0.45390402     0.94100
C1506       C  0.64789191  0.94282370  0.54628383     0.93300
C1507       C  0.69798583  0.54224540  0.45421128     0.85400
C1508       C  0.76875073  0.94243615  0.54598612     0.91700
O1509       O  0.98213385  0.78987833  0.44941779    -0.72100
O1510       O  0.55792310  0.73213211  0.51501766    -0.73000
O1511       O  0.98238674  0.69401381  0.44912141    -0.61700
O1512       O  0.55759477  0.82775500  0.51526847    -0.70100
O1513       O  0.98436079  0.79068470  0.55107177    -0.69600
O1514       O  0.90914658  0.65694603  0.48491777    -0.60900
O1515       O  0.98460816  0.69481737  0.55075989    -0.73400
O1516       O  0.90882329  0.75257364  0.48516418    -0.72200
Cu1517     Cu  0.52211360  0.76201594  0.48057799     1.04600
Cu1518     Cu  0.94463024  0.72268524  0.51960682     1.04300
C1519       C  0.93349284  0.77773141  0.45419035     0.94100
C1520       C  0.53324993  0.70696640  0.54598717     0.93300
C1521       C  0.93383844  0.65687296  0.45390100     0.85400
C1522       C  0.53290978  0.82782401  0.54629092     0.91700
O1523       O  0.74429365  0.82755667  0.51480405    -0.72100
O1524       O  0.68600154  0.69332471  0.44929033    -0.73000
O1525       O  0.64813080  0.73139426  0.51480651    -0.61700
O1526       O  0.78237183  0.78969738  0.44927086    -0.70100
O1527       O  0.81860979  0.75329042  0.48537897    -0.69600
O1528       O  0.68436155  0.69497788  0.55091280    -0.60900
O1529       O  0.72245326  0.65712815  0.48539646    -0.73400
O1530       O  0.78073484  0.79135314  0.55091285    -0.72200
Cu1531     Cu  0.71416218  0.76152930  0.48040072     1.04600
Cu1532     Cu  0.75257774  0.72315210  0.51979310     1.04300
C1533       C  0.76897480  0.82798771  0.54598072     0.94100
C1534       C  0.69776981  0.65669584  0.45422231     0.93300
C1535       C  0.64770850  0.70672220  0.54598027     0.85400
C1536       C  0.81902479  0.77795273  0.45420013     0.91700
loop_ 
_geom_bond_atom_site_label_1 
_geom_bond_atom_site_label_2 
_geom_bond_distance 
_geom_bond_site_symmetry_2 
_ccdc_geom_bond_type 
C1            C2   1.404       .  A
C1            C6   1.394       .  A
C1          C106   1.488       .  S
C2            C3   1.393       .  A
C2           C37   1.489       .  S
C3            C4   1.419       .  A
C3          H392   1.084       .  S
C4            C5   1.446       .  A
C4          C355   1.507       .  S
C5            C6   1.418       .  A
C5          C382   1.508       .  S
C6            H7   1.084       .  S
H8          C387   1.084       .  S
C9           C10   1.404       .  A
C9           C14   1.394       .  A
C9          C103   1.488       .  S
C10          C11   1.394       .  A
C10          C40   1.489       .  S
C11          C12   1.419       .  A
C11          H16   1.084       .  S
C12          C13   1.446       .  A
C12         C340   1.507       .  S
C13          C14   1.418       .  A
C13         C314   1.508       .  S
C14          H15   1.084       .  S
N17          C22   1.351       .  A
N17          C21   1.351       .  A
N17          H49   1.039       .  S
N18         C409   1.347       .  A
N18         C410   1.347       .  A
N19          C24   1.351       .  A
N19          C23   1.351       .  A
N19          H50   1.039       .  S
N20          C27   1.347       .  A
N20          C28   1.347       .  A
C21          C29   1.386       .  A
C21         C421   1.413       .  A
C22          C30   1.386       .  A
C22         C806   1.413   1_455  A
C23          C31   1.386       .  A
C23         C424   1.413       .  A
C24          C32   1.386       .  A
C24         C807   1.413   1_455  A
C25          C37   1.406       .  A
C25          C33   1.382       .  A
C25         N402   1.347   1_545  A
C26          C40   1.406       .  A
C26          C34   1.382       .  A
C26         N402   1.347   1_545  A
C27          C35   1.382       .  A
C27          C38   1.406       .  A
C28          C36   1.382       .  A
C28          C39   1.406       .  A
C29          C30   1.367       .  A
C29          H41   1.079       .  S
C30         H810   1.079   1_455  S
C31          C32   1.367       .  A
C31          H43   1.079       .  S
C32         H812   1.079   1_455  S
C33          C34   1.381       .  A
C33          H45   1.080       .  S
C34          H46   1.080       .  S
C35          C36   1.381       .  A
C35          H47   1.080       .  S
C36          H48   1.080       .  S
C37         C405   1.413   1_545  A
C38         C790   1.413       .  A
C38          C59   1.489       .  S
C39         C792   1.413       .  A
C39          C52   1.489       .  S
C40         C407   1.413   1_545  A
H42         C798   1.079       .  S
H44         C800   1.079       .  S
C51          C52   1.404       .  A
C51          C56   1.394       .  A
C51         C139   1.488       .  S
C52          C53   1.393       .  A
C53          C54   1.419       .  A
C53          H58   1.084       .  S
C54          C55   1.446       .  A
C54         C327   1.507       .  S
C55          C56   1.418       .  A
C55         C312   1.508       .  S
C56          H57   1.084       .  S
C59          C60   1.404       .  A
C59          C64   1.394       .  A
C60          C61   1.394       .  A
C60         C138   1.488       .  S
C61          C62   1.418       .  A
C61          H66   1.084       .  S
C62          C63   1.446       .  A
C62         C384   1.508       .  S
C63          C64   1.419       .  A
C63         C367   1.507       .  S
C64          H65   1.084       .  S
C67          C68   1.404       .  A
C67          C72   1.394       .  A
C67         C140   1.488       .  S
C68          C69   1.394       .  A
C68         C104   1.488       .  S
C69          C70   1.418       .  A
C69          H74   1.084       .  S
C70          C71   1.446       .  A
C70         C325   1.508       .  S
C71          C72   1.418       .  A
C71         C342   1.508       .  S
C72         H457   1.084       .  S
H73         C456   1.084       .  S
C75          C76   1.404       .  A
C75          C80   1.394       .  A
C75         C137   1.488       .  S
C76          C77   1.394       .  A
C76         C105   1.488       .  S
C77          C78   1.418       .  A
C77          H82   1.084       .  S
C78          C79   1.446       .  A
C78         C369   1.508       .  S
C79          C80   1.418       .  A
C79         C353   1.508       .  S
C80         H465   1.084       .  S
H81         C464   1.084       .  S
N83          C88   1.351       .  A
N83          C87   1.351       .  A
N83         H115   1.039       .  S
N84          C91   1.346       .  A
N84          C92   1.346       .  A
N85          C90   1.351       .  A
N85          C89   1.351       .  A
N85         H116   1.039       .  S
N86          C93   1.347       .  A
N86          C94   1.347       .  A
C87          C95   1.386       .  A
C87         C103   1.413       .  A
C88          C96   1.386       .  A
C88         C872   1.412   1_455  A
C89          C97   1.386       .  A
C89         C106   1.413       .  A
C90          C98   1.386       .  A
C90         C873   1.412   1_455  A
C91         C103   1.405       .  A
C91          C99   1.382       .  A
C92         C106   1.405       .  A
C92         C100   1.382       .  A
C93         C101   1.382       .  A
C93         C104   1.406       .  A
C94         C102   1.382       .  A
C94         C105   1.406       .  A
C95          C96   1.367       .  A
C95         H107   1.079       .  S
C96         H876   1.079   1_455  S
C97          C98   1.367       .  A
C97         H109   1.079       .  S
C98         H878   1.079   1_455  S
C99         C100   1.380       .  A
C99         H111   1.080       .  S
C100        H112   1.080       .  S
C101        C102   1.381       .  A
C101        H113   1.080       .  S
C102        H114   1.080       .  S
C104        C856   1.412       .  A
C105        C858   1.412       .  A
H108        C864   1.079       .  S
H110        C866   1.079       .  S
N117        C122   1.351       .  A
N117        C121   1.351       .  A
N117        H149   1.039       .  S
N118        C125   1.347   1_565  A
N118        C126   1.347   1_565  A
N119        C124   1.351       .  A
N119        C123   1.351       .  A
N119        H150   1.039       .  S
N120        C127   1.347       .  A
N120        C128   1.346       .  A
C121        C129   1.386       .  A
C121        C521   1.412       .  A
C122        C138   1.413       .  A
C122        C130   1.386       .  A
C123        C131   1.386       .  A
C123        C524   1.412       .  A
C124        C139   1.413       .  A
C124        C132   1.386       .  A
C125        C137   1.406       .  A
C125        C133   1.382       .  A
C126        C140   1.406       .  A
C126        C134   1.382       .  A
C127        C135   1.382       .  A
C127        C138   1.405       .  A
C128        C136   1.382       .  A
C128        C139   1.405       .  A
C129        C130   1.367       .  A
C129        H141   1.079       .  S
C130        H142   1.079       .  S
C131        C132   1.367       .  A
C131        H143   1.079       .  S
C132        H144   1.079       .  S
C133        C134   1.381       .  A
C133        H145   1.080       .  S
C134        H146   1.080       .  S
C135        C136   1.380       .  A
C135        H147   1.080       .  S
C136        H148   1.080       .  S
C137        C505   1.412   1_545  A
C140        C507   1.412   1_545  A
C151        C152   1.404       .  A
C151        C156   1.394       .  A
C151        C255   1.489       .  S
C152        C153   1.394       .  A
C152        C203   1.488       .  S
C153        C154   1.418       .  A
C153        H158   1.084       .  S
C154        C155   1.446       .  A
C154        C311   1.508       .  S
C155        C156   1.419       .  A
C155        C328   1.507       .  S
C156        H925   1.084   1_455  S
H157        C924   1.084       .  S
C159        C160   1.404       .  A
C159        C164   1.394       .  A
C159        C289   1.488       .  S
C160        C161   1.394       .  A
C160        C204   1.488       .  S
C161        C162   1.418       .  A
C161        H166   1.084       .  S
C162        C163   1.446       .  A
C162        C341   1.508       .  S
C163        C164   1.418       .  A
C163        C326   1.508       .  S
C164        H933   1.084   1_455  S
H165        C932   1.084       .  S
C167        C168   1.404       .  A
C167        C172   1.394       .  A
C167        C256   1.489       .  S
C168        C169   1.394       .  A
C168        C290   1.488       .  S
C169        C170   1.418       .  A
C169        H174   1.084       .  S
C170        C171   1.446       .  A
C170        C313   1.508       .  S
C171        C172   1.419       .  A
C171        C339   1.507       .  S
C172        H173   1.084       .  S
C175        C176   1.404       .  A
C175        C180   1.394       .  A
C175        C288   1.488       .  S
C176        C177   1.394       .  A
C176        C205   1.488       .  S
C177        C178   1.418       .  A
C177        H182   1.084       .  S
C178        C179   1.446       .  A
C178        C354   1.508       .  S
C179        C180   1.418       .  A
C179        C370   1.508       .  S
C180        H949   1.084   1_455  S
H181        C948   1.084       .  S
N183        C188   1.351       .  A
N183        C187   1.351       .  A
N183        H215   1.039       .  S
N184        C191   1.346       .  A
N184        C192   1.346       .  A
N185        C190   1.351       .  A
N185        C189   1.351       .  A
N185        H216   1.039       .  S
N186        C193   1.347       .  A
N186        C194   1.347       .  A
C187        C195   1.386       .  A
C187        C203   1.413       .  A
C188        C196   1.386       .  A
C188        C588   1.412   1_545  A
C189        C197   1.386       .  A
C189        C206   1.413       .  A
C190        C198   1.386       .  A
C190        C589   1.412   1_545  A
C191        C203   1.405       .  A
C191        C199   1.382       .  A
C192        C206   1.405       .  A
C192        C200   1.382       .  A
C193        C201   1.382       .  A
C193        C204   1.406       .  A
C194        C202   1.382       .  A
C194        C205   1.406       .  A
C195        C196   1.367       .  A
C195        H207   1.079       .  S
C196        H208   1.079   1_545  S
C197        C198   1.367       .  A
C197        H209   1.079       .  S
C198        H210   1.079   1_545  S
C199        C200   1.380       .  A
C199        H211   1.080       .  S
C200        H212   1.080       .  S
C201        C202   1.381       .  A
C201        H213   1.080       .  S
C202        H214   1.080       .  S
C204        C572   1.412       .  A
C205        C574   1.412       .  A
C206        C217   1.488       .  S
C217        C218   1.404       .  A
C217        C222   1.394       .  A
C218        C219   1.393       .  A
C218        C254   1.489       .  S
C219        C220   1.419       .  A
C219        H992   1.084   1_455  S
C220        C221   1.446       .  A
C220        C368   1.507       .  S
C221        C222   1.418       .  A
C221        C383   1.508       .  S
C222        H223   1.084       .  S
H224        C987   1.084       .  S
C225        C226   1.404       .  A
C225        C230   1.394       .  A
C225        C287   1.488       .  S
C226        C227   1.394       .  A
C226        C253   1.489       .  S
C227        C228   1.419       .  A
C227        H232   1.084       .  S
C228        C229   1.446       .  A
C228        C356   1.507       .  S
C229        C230   1.418       .  A
C229        C381   1.508       .  S
C230        H231   1.084       .  S
N233        C238   1.351       .  A
N233        C237   1.351       .  A
N233        H265   1.039       .  S
N234        C241   1.347       .  A
N234        C242   1.347       .  A
N235        C240   1.351       .  A
N235        C239   1.351       .  A
N235        H266   1.039       .  S
N236       C1011   1.347       .  A
N236       C1012   1.347       .  A
C237        C245   1.386       .  A
C237        C637   1.413   1_545  A
C238        C246   1.386       .  A
C238       C1022   1.413       .  A
C239        C247   1.386       .  A
C239        C640   1.413   1_545  A
C240        C248   1.386       .  A
C240       C1023   1.413       .  A
C241        C253   1.406       .  A
C241        C249   1.382       .  A
C242        C256   1.406       .  A
C242        C250   1.382       .  A
C243        C251   1.382       .  A
C243        C254   1.406       .  A
C243       N1004   1.347   1_455  A
C244        C252   1.382       .  A
C244        C255   1.406       .  A
C244       N1004   1.347   1_455  A
C245        C246   1.367       .  A
C245        H257   1.079   1_545  S
C246        H258   1.079       .  S
C247        C248   1.367       .  A
C247        H259   1.079   1_545  S
C248        H260   1.079       .  S
C249        C250   1.381       .  A
C249        H261   1.080       .  S
C250        H262   1.080       .  S
C251        C252   1.381       .  A
C251        H263   1.080       .  S
C252        H264   1.080       .  S
C253        C621   1.413       .  A
C254       C1006   1.413   1_455  A
C255       C1008   1.413   1_455  A
C256        C623   1.413       .  A
N267        C272   1.351       .  A
N267        C271   1.351       .  A
N267        H299   1.039       .  S
N268        C275   1.346       .  A
N268        C276   1.346       .  A
N269        C274   1.351       .  A
N269        C273   1.351       .  A
N269        H300   1.039       .  S
N270       C1045   1.347       .  A
N270       C1046   1.347       .  A
C271        C279   1.386       .  A
C271        C287   1.412       .  A
C272        C280   1.386       .  A
C272       C1056   1.412       .  A
C273        C281   1.386       .  A
C273        C290   1.413       .  A
C274        C282   1.386       .  A
C274       C1057   1.412       .  A
C275        C287   1.405       .  A
C275        C283   1.382       .  A
C276        C290   1.405       .  A
C276        C284   1.382       .  A
C277        C285   1.382       .  A
C277        C288   1.406       .  A
C277       N1038   1.347   1_455  A
C278        C286   1.382       .  A
C278        C289   1.406       .  A
C278       N1038   1.347   1_455  A
C279        C280   1.367       .  A
C279        H291   1.079       .  S
C280        H292   1.079       .  S
C281        C282   1.367       .  A
C281        H293   1.079       .  S
C282        H294   1.079       .  S
C283        C284   1.380       .  A
C283        H295   1.080       .  S
C284        H296   1.080       .  S
C285        C286   1.381       .  A
C285        H297   1.080       .  S
C286        H298   1.080       .  S
C288       C1040   1.412   1_455  A
C289       C1042   1.412   1_455  A
O301       Cu309   2.031   1_556  S
O301        C311   1.273       .  A
O302       Cu309   2.022       .  S
O302        C312   1.287       .  A
O303       Cu309   2.031   1_556  S
O303        C313   1.273       .  A
O304       Cu309   2.022       .  S
O304        C314   1.287       .  A
O305       Cu310   2.031   1_554  S
O305        C314   1.273       .  A
O306       Cu310   2.022       .  S
O306        C313   1.287       .  A
O307       Cu310   2.031   1_554  S
O307        C312   1.273       .  A
O308       Cu310   2.022       .  S
O308        C311   1.287       .  A
Cu309      Cu310   2.355   1_554  S
O315      Cu1091   2.022       .  S
O315        C325   1.286       .  A
O316       Cu323   2.030   1_556  S
O316        C326   1.273       .  A
O317      Cu1091   2.021       .  S
O317        C327   1.286       .  A
O318       Cu323   2.031   1_556  S
O318        C328   1.273       .  A
O319       Cu324   2.021       .  S
O319       C1096   1.286       .  A
O320       Cu324   2.031   1_554  S
O320        C327   1.273       .  A
O321       Cu324   2.022       .  S
O321       C1094   1.286       .  A
O322       Cu324   2.030   1_554  S
O322        C325   1.273       .  A
Cu323      O1083   2.022   1_455  S
Cu323      O1085   2.021   1_455  S
Cu323     Cu1092   2.355   1_454  S
Cu324     Cu1091   2.355   1_556  S
C326       O1089   1.286   1_455  A
C328       O1087   1.286   1_455  A
O329       Cu337   2.031   1_556  S
O329        C339   1.273       .  A
O330       Cu337   2.021       .  S
O330        C724   1.286       .  A
O331       Cu337   2.030   1_556  S
O331        C341   1.273       .  A
O332       Cu337   2.022       .  S
O332        C726   1.286       .  A
O333       Cu338   2.030   1_554  S
O333        C342   1.273       .  A
O334       Cu722   2.022       .  S
O334        C341   1.286       .  A
O335       Cu338   2.031   1_554  S
O335        C340   1.273       .  A
O336       Cu722   2.021       .  S
O336        C339   1.286       .  A
Cu337      Cu722   2.355   1_554  S
Cu338       O718   2.022   1_545  S
Cu338       O720   2.021   1_545  S
Cu338      Cu721   2.355   1_546  S
C340        O714   1.286   1_545  A
C342        O716   1.286   1_545  A
O343       Cu351   2.022       .  S
O343        C737   1.286       .  A
O344       Cu351   2.030       .  S
O344        C354   1.273       .  A
O345       Cu351   2.021       .  S
O345        C739   1.286       .  A
O346       Cu351   2.031       .  S
O346        C356   1.273       .  A
O347       Cu736   2.021       .  S
O347        C356   1.286       .  A
O348       Cu352   2.031       .  S
O348        C355   1.273       .  A
O349       Cu736   2.022       .  S
O349        C354   1.286       .  A
O350       Cu352   2.030       .  S
O350        C353   1.273       .  A
Cu351      Cu736   2.355       .  S
Cu352       O731   2.021   1_545  S
Cu352       O733   2.022   1_545  S
Cu352      Cu735   2.355   1_545  S
C353        O727   1.286   1_545  A
C355        O729   1.286   1_545  A
O357      Cu1133   2.021       .  S
O357        C367   1.286       .  A
O358       Cu365   2.031       .  S
O358        C368   1.273       .  A
O359      Cu1133   2.022       .  S
O359        C369   1.286       .  A
O360       Cu365   2.030       .  S
O360        C370   1.273       .  A
O361       Cu366   2.022       .  S
O361       C1138   1.286       .  A
O362       Cu366   2.030       .  S
O362        C369   1.273       .  A
O363       Cu366   2.021       .  S
O363       C1136   1.286       .  A
O364       Cu366   2.031       .  S
O364        C367   1.273       .  A
Cu365      O1125   2.021   1_455  S
Cu365      O1127   2.022   1_455  S
Cu365     Cu1134   2.355   1_455  S
Cu366     Cu1133   2.355       .  S
C368       O1131   1.286   1_455  A
C370       O1129   1.286   1_455  A
O371       Cu379   2.031       .  S
O371        C381   1.273       .  A
O372       Cu379   2.022       .  S
O372        C382   1.287       .  A
O373       Cu379   2.031       .  S
O373        C383   1.273       .  A
O374       Cu379   2.022       .  S
O374        C384   1.287       .  A
O375       Cu380   2.031       .  S
O375        C384   1.273       .  A
O376       Cu380   2.022       .  S
O376        C383   1.287       .  A
O377       Cu380   2.031       .  S
O377        C382   1.273       .  A
O378       Cu380   2.022       .  S
O378        C381   1.287       .  A
Cu379      Cu380   2.355       .  S
C385        C386   1.404       .  A
C385        C390   1.394       .  A
C385        C490   1.488       .  S
C386        C387   1.393       .  A
C386        C421   1.489       .  S
C387        C388   1.419       .  A
C388        C389   1.446       .  A
C388        C739   1.507       .  S
C389        C390   1.418       .  A
C389        C766   1.508       .  S
C390        H391   1.084       .  S
C393        C394   1.404       .  A
C393        C398   1.394       .  A
C393        C487   1.488       .  S
C394        C395   1.394       .  A
C394        C424   1.489       .  S
C395        C396   1.419       .  A
C395        H400   1.084       .  S
C396        C397   1.446       .  A
C396        C724   1.507       .  S
C397        C398   1.418       .  A
C397        C698   1.508       .  S
C398        H399   1.084       .  S
N401        C406   1.351       .  A
N401        C405   1.351       .  A
N401        H433   1.039       .  S
N403        C408   1.351       .  A
N403        C407   1.351       .  A
N403        H434   1.039       .  S
N404        C411   1.347       .  A
N404        C412   1.347       .  A
C405        C413   1.386       .  A
C406       C1190   1.413   1_455  A
C406        C414   1.386       .  A
C407        C415   1.386       .  A
C408       C1191   1.413   1_455  A
C408        C416   1.386       .  A
C409        C421   1.406       .  A
C409        C417   1.382       .  A
C410        C424   1.406       .  A
C410        C418   1.382       .  A
C411        C419   1.382       .  A
C411        C422   1.406       .  A
C412        C420   1.382       .  A
C412        C423   1.406       .  A
C413        C414   1.367       .  A
C413        H425   1.079       .  S
C414       H1194   1.079   1_455  S
C415        C416   1.367       .  A
C415        H427   1.079       .  S
C416       H1196   1.079   1_455  S
C417        C418   1.381       .  A
C417        H429   1.080       .  S
C418        H430   1.080       .  S
C419        C420   1.381       .  A
C419        H431   1.080       .  S
C420        H432   1.080       .  S
C422       C1174   1.413       .  A
C422        C443   1.489       .  S
C423       C1176   1.413       .  A
C423        C436   1.489       .  S
H426       C1182   1.079       .  S
H428       C1184   1.079       .  S
C435        C436   1.404       .  A
C435        C440   1.394       .  A
C435        C523   1.488       .  S
C436        C437   1.393       .  A
C437        C438   1.419       .  A
C437        H442   1.084       .  S
C438        C439   1.446       .  A
C438        C711   1.507       .  S
C439        C440   1.418       .  A
C439        C696   1.508       .  S
C440        H441   1.084       .  S
C443        C444   1.404       .  A
C443        C448   1.394       .  A
C444        C445   1.394       .  A
C444        C522   1.488       .  S
C445        C446   1.418       .  A
C445        H450   1.084       .  S
C446        C447   1.446       .  A
C446        C768   1.508       .  S
C447        C448   1.419       .  A
C447        C751   1.507       .  S
C448        H449   1.084       .  S
C451        C452   1.404       .  A
C451        C456   1.394       .  A
C451        C524   1.488       .  S
C452        C453   1.394       .  A
C452        C488   1.488       .  S
C453        C454   1.418       .  A
C453        H458   1.084       .  S
C454        C455   1.446       .  A
C454        C709   1.508       .  S
C455        C456   1.418       .  A
C455        C726   1.508       .  S
C459        C460   1.404       .  A
C459        C464   1.394       .  A
C459        C521   1.488       .  S
C460        C461   1.394       .  A
C460        C489   1.488       .  S
C461        C462   1.418       .  A
C461        H466   1.084       .  S
C462        C463   1.446       .  A
C462        C753   1.508       .  S
C463        C464   1.418       .  A
C463        C737   1.508       .  S
N467        C472   1.351       .  A
N467        C471   1.351       .  A
N467        H499   1.039       .  S
N468        C475   1.346       .  A
N468        C476   1.346       .  A
N469        C474   1.351       .  A
N469        C473   1.351       .  A
N469        H500   1.039       .  S
N470        C477   1.347       .  A
N470        C478   1.347       .  A
C471        C479   1.386       .  A
C471        C487   1.413       .  A
C472       C1256   1.412   1_455  A
C472        C480   1.386       .  A
C473        C481   1.386       .  A
C473        C490   1.413       .  A
C474       C1257   1.412   1_455  A
C474        C482   1.386       .  A
C475        C487   1.405       .  A
C475        C483   1.382       .  A
C476        C490   1.405       .  A
C476        C484   1.382       .  A
C477        C485   1.382       .  A
C477        C488   1.406       .  A
C478        C486   1.382       .  A
C478        C489   1.406       .  A
C479        C480   1.367       .  A
C479        H491   1.079       .  S
C480       H1260   1.079   1_455  S
C481        C482   1.367       .  A
C481        H493   1.079       .  S
C482       H1262   1.079   1_455  S
C483        C484   1.380       .  A
C483        H495   1.080       .  S
C484        H496   1.080       .  S
C485        C486   1.381       .  A
C485        H497   1.080       .  S
C486        H498   1.080       .  S
C488       C1240   1.412       .  A
C489       C1242   1.412       .  A
H492       C1248   1.079       .  S
H494       C1250   1.079       .  S
N501        C506   1.351       .  A
N501        C505   1.351       .  A
N501        H533   1.039       .  S
N502        C509   1.347       .  A
N502        C510   1.347       .  A
N503        C508   1.351       .  A
N503        C507   1.351       .  A
N503        H534   1.039       .  S
N504        C511   1.346       .  A
N504        C512   1.346       .  A
C505        C513   1.386       .  A
C506        C522   1.413       .  A
C506        C514   1.386       .  A
C507        C515   1.386       .  A
C508        C523   1.413       .  A
C508        C516   1.386       .  A
C509        C521   1.406       .  A
C509        C517   1.382       .  A
C510        C524   1.406       .  A
C510        C518   1.382       .  A
C511        C519   1.382       .  A
C511        C522   1.405       .  A
C512        C520   1.382       .  A
C512        C523   1.405       .  A
C513        C514   1.367       .  A
C513        H525   1.079       .  S
C514        H526   1.079       .  S
C515        C516   1.367       .  A
C515        H527   1.079       .  S
C516        H528   1.079       .  S
C517        C518   1.381       .  A
C517        H529   1.080       .  S
C518        H530   1.080       .  S
C519        C520   1.380       .  A
C519        H531   1.080       .  S
C520        H532   1.080       .  S
C535        C536   1.404       .  A
C535        C540   1.394       .  A
C535        C639   1.489       .  S
C536        C537   1.394       .  A
C536        C587   1.488       .  S
C537        C538   1.418       .  A
C537        H542   1.084       .  S
C538        C539   1.446       .  A
C538        C695   1.508       .  S
C539        C540   1.419       .  A
C539        C712   1.507       .  S
C540       H1309   1.084   1_455  S
H541       C1308   1.084       .  S
C543        C544   1.404       .  A
C543        C548   1.394       .  A
C543        C673   1.488       .  S
C544        C545   1.394       .  A
C544        C588   1.488       .  S
C545        C546   1.418       .  A
C545        H550   1.084       .  S
C546        C547   1.446       .  A
C546        C725   1.508       .  S
C547        C548   1.418       .  A
C547        C710   1.508       .  S
C548       H1317   1.084   1_455  S
H549       C1316   1.084       .  S
C551        C552   1.404       .  A
C551        C556   1.394       .  A
C551        C640   1.489       .  S
C552        C553   1.394       .  A
C552        C674   1.488       .  S
C553        C554   1.418       .  A
C553        H558   1.084       .  S
C554        C555   1.446       .  A
C554        C697   1.508       .  S
C555        C556   1.419       .  A
C555        C723   1.507       .  S
C556        H557   1.084       .  S
C559        C560   1.404       .  A
C559        C564   1.394       .  A
C559        C672   1.488       .  S
C560        C561   1.394       .  A
C560        C589   1.488       .  S
C561        C562   1.418       .  A
C561        H566   1.084       .  S
C562        C563   1.446       .  A
C562        C738   1.508       .  S
C563        C564   1.418       .  A
C563        C754   1.508       .  S
C564       H1333   1.084   1_455  S
H565       C1332   1.084       .  S
N567        C572   1.351       .  A
N567        C571   1.351       .  A
N567        H599   1.039       .  S
N568        C575   1.346       .  A
N568        C576   1.346       .  A
N569        C574   1.351       .  A
N569        C573   1.351       .  A
N569        H600   1.039       .  S
N570        C577   1.347       .  A
N570        C578   1.347       .  A
C571        C579   1.386       .  A
C571        C587   1.413       .  A
C572        C580   1.386       .  A
C573        C581   1.386       .  A
C573        C590   1.412       .  A
C574        C582   1.386       .  A
C575        C587   1.405       .  A
C575        C583   1.382       .  A
C576        C590   1.405       .  A
C576        C584   1.382       .  A
C577        C585   1.382       .  A
C577        C588   1.406       .  A
C578        C586   1.382       .  A
C578        C589   1.406       .  A
C579        C580   1.367       .  A
C579        H591   1.079       .  S
C580        H592   1.079       .  S
C581        C582   1.367       .  A
C581        H593   1.079       .  S
C582        H594   1.079       .  S
C583        C584   1.380       .  A
C583        H595   1.080       .  S
C584        H596   1.080       .  S
C585        C586   1.381       .  A
C585        H597   1.080       .  S
C586        H598   1.080       .  S
C590        C601   1.488       .  S
C601        C602   1.404       .  A
C601        C606   1.394       .  A
C602        C603   1.393       .  A
C602        C638   1.489       .  S
C603        C604   1.419       .  A
C603       H1376   1.084   1_455  S
C604        C605   1.446       .  A
C604        C752   1.507       .  S
C605        C606   1.418       .  A
C605        C767   1.508       .  S
C606        H607   1.084       .  S
H608       C1371   1.084       .  S
C609        C610   1.404       .  A
C609        C614   1.394       .  A
C609        C671   1.488       .  S
C610        C611   1.394       .  A
C610        C637   1.489       .  S
C611        C612   1.419       .  A
C611        H616   1.084       .  S
C612        C613   1.446       .  A
C612        C740   1.507       .  S
C613        C614   1.418       .  A
C613        C765   1.508       .  S
C614        H615   1.084       .  S
N617        C622   1.351       .  A
N617        C621   1.351       .  A
N617        H649   1.039       .  S
N618        C625   1.347       .  A
N618        C626   1.347       .  A
N619        C624   1.351       .  A
N619        C623   1.351       .  A
N619        H650   1.039       .  S
N620       C1395   1.347       .  A
N620       C1396   1.347       .  A
C621        C629   1.386       .  A
C622       C1406   1.413       .  A
C622        C630   1.386       .  A
C623        C631   1.386       .  A
C624       C1407   1.413       .  A
C624        C632   1.386       .  A
C625        C637   1.406       .  A
C625        C633   1.382       .  A
C626        C640   1.406       .  A
C626        C634   1.382       .  A
C627        C635   1.382       .  A
C627        C638   1.406       .  A
C627       N1388   1.347   1_455  A
C628        C636   1.382       .  A
C628        C639   1.406       .  A
C628       N1388   1.347   1_455  A
C629        C630   1.367       .  A
C629        H641   1.079       .  S
C630        H642   1.079       .  S
C631        C632   1.367       .  A
C631        H643   1.079       .  S
C632        H644   1.079       .  S
C633        C634   1.381       .  A
C633        H645   1.080       .  S
C634        H646   1.080       .  S
C635        C636   1.381       .  A
C635        H647   1.080       .  S
C636        H648   1.080       .  S
C638       C1390   1.413   1_455  A
C639       C1392   1.413   1_455  A
N651        C656   1.351       .  A
N651        C655   1.351       .  A
N651        H683   1.039       .  S
N652        C659   1.346       .  A
N652        C660   1.346       .  A
N653        C658   1.351       .  A
N653        C657   1.351       .  A
N653        H684   1.039       .  S
N654       C1429   1.347       .  A
N654       C1430   1.347       .  A
C655        C663   1.386       .  A
C655        C671   1.412       .  A
C656       C1440   1.412       .  A
C656        C664   1.386       .  A
C657        C665   1.386       .  A
C657        C674   1.412       .  A
C658       C1441   1.412       .  A
C658        C666   1.386       .  A
C659        C671   1.405       .  A
C659        C667   1.382       .  A
C660        C674   1.405       .  A
C660        C668   1.382       .  A
C661        C669   1.382       .  A
C661        C672   1.406       .  A
C661       N1422   1.347   1_455  A
C662        C670   1.382       .  A
C662        C673   1.406       .  A
C662       N1422   1.347   1_455  A
C663        C664   1.367       .  A
C663        H675   1.079       .  S
C664        H676   1.079       .  S
C665        C666   1.367       .  A
C665        H677   1.079       .  S
C666        H678   1.079       .  S
C667        C668   1.380       .  A
C667        H679   1.080       .  S
C668        H680   1.080       .  S
C669        C670   1.381       .  A
C669        H681   1.080       .  S
C670        H682   1.080       .  S
C672       C1424   1.412   1_455  A
C673       C1426   1.412   1_455  A
O685       Cu693   2.031   1_556  S
O685        C695   1.273       .  A
O686       Cu693   2.022       .  S
O686        C696   1.287       .  A
O687       Cu693   2.031   1_556  S
O687        C697   1.273       .  A
O688       Cu693   2.022       .  S
O688        C698   1.287       .  A
O689       Cu694   2.031   1_554  S
O689        C698   1.273       .  A
O690       Cu694   2.022       .  S
O690        C697   1.287       .  A
O691       Cu694   2.031   1_554  S
O691        C696   1.273       .  A
O692       Cu694   2.022       .  S
O692        C695   1.287       .  A
Cu693      Cu694   2.355   1_554  S
O699      Cu1475   2.022       .  S
O699        C709   1.286       .  A
O700       Cu707   2.030   1_556  S
O700        C710   1.273       .  A
O701      Cu1475   2.021       .  S
O701        C711   1.286       .  A
O702       Cu707   2.031   1_556  S
O702        C712   1.273       .  A
O703       Cu708   2.021       .  S
O703       C1480   1.286       .  A
O704       Cu708   2.031   1_554  S
O704        C711   1.273       .  A
O705       Cu708   2.022       .  S
O705       C1478   1.286       .  A
O706       Cu708   2.030   1_554  S
O706        C709   1.273       .  A
Cu707      O1467   2.022   1_455  S
Cu707      O1469   2.021   1_455  S
Cu707     Cu1476   2.355   1_454  S
Cu708     Cu1475   2.355   1_556  S
C710       O1473   1.286   1_455  A
C712       O1471   1.286   1_455  A
O713       Cu721   2.031   1_556  S
O713        C723   1.273       .  A
O714       Cu721   2.021       .  S
O715       Cu721   2.030   1_556  S
O715        C725   1.273       .  A
O716       Cu721   2.022       .  S
O717       Cu722   2.030   1_554  S
O717        C726   1.273       .  A
O718        C725   1.286       .  A
O719       Cu722   2.031   1_554  S
O719        C724   1.273       .  A
O720        C723   1.286       .  A
O727       Cu735   2.022       .  S
O728       Cu735   2.030       .  S
O728        C738   1.273       .  A
O729       Cu735   2.021       .  S
O730       Cu735   2.031       .  S
O730        C740   1.273       .  A
O731        C740   1.286       .  A
O732       Cu736   2.031       .  S
O732        C739   1.273       .  A
O733        C738   1.286       .  A
O734       Cu736   2.030       .  S
O734        C737   1.273       .  A
O741      Cu1517   2.021       .  S
O741        C751   1.286       .  A
O742       Cu749   2.031       .  S
O742        C752   1.273       .  A
O743      Cu1517   2.022       .  S
O743        C753   1.286       .  A
O744       Cu749   2.030       .  S
O744        C754   1.273       .  A
O745       Cu750   2.022       .  S
O745       C1522   1.286       .  A
O746       Cu750   2.030       .  S
O746        C753   1.273       .  A
O747       Cu750   2.021       .  S
O747       C1520   1.286       .  A
O748       Cu750   2.031       .  S
O748        C751   1.273       .  A
Cu749      O1509   2.021   1_455  S
Cu749      O1511   2.022   1_455  S
Cu749     Cu1518   2.355   1_455  S
Cu750     Cu1517   2.355       .  S
C752       O1515   1.286   1_455  A
C754       O1513   1.286   1_455  A
O755       Cu763   2.031       .  S
O755        C765   1.273       .  A
O756       Cu763   2.022       .  S
O756        C766   1.287       .  A
O757       Cu763   2.031       .  S
O757        C767   1.273       .  A
O758       Cu763   2.022       .  S
O758        C768   1.287       .  A
O759       Cu764   2.031       .  S
O759        C768   1.273       .  A
O760       Cu764   2.022       .  S
O760        C767   1.287       .  A
O761       Cu764   2.031       .  S
O761        C766   1.273       .  A
O762       Cu764   2.022       .  S
O762        C765   1.287       .  A
Cu763      Cu764   2.355       .  S
C769        C770   1.404       .  A
C769        C774   1.394       .  A
C769        C874   1.488       .  S
C770        C771   1.393       .  A
C770        C805   1.489       .  S
C771        C772   1.419       .  A
C771       H1160   1.084       .  S
C772        C773   1.446       .  A
C772       C1123   1.507       .  S
C773        C774   1.418       .  A
C773       C1150   1.508       .  S
C774        H775   1.084       .  S
H776       C1155   1.084       .  S
C777        C778   1.404       .  A
C777        C782   1.394       .  A
C777        C871   1.488       .  S
C778        C779   1.394       .  A
C778        C808   1.489       .  S
C779        C780   1.419       .  A
C779        H784   1.084       .  S
C780        C781   1.446       .  A
C780       C1108   1.507       .  S
C781        C782   1.418       .  A
C781       C1082   1.508       .  S
C782        H783   1.084       .  S
N785        C790   1.351       .  A
N785        C789   1.351       .  A
N785        H817   1.039       .  S
N786       C1177   1.347       .  A
N786       C1178   1.347       .  A
N787        C792   1.351       .  A
N787        C791   1.351       .  A
N787        H818   1.039       .  S
N788        C795   1.347       .  A
N788        C796   1.347       .  A
C789        C797   1.386       .  A
C789       C1189   1.413       .  A
C790        C798   1.386       .  A
C791        C799   1.386       .  A
C791       C1192   1.413       .  A
C792        C800   1.386       .  A
C793        C805   1.406       .  A
C793        C801   1.382       .  A
C793       N1170   1.347   1_545  A
C794        C808   1.406       .  A
C794        C802   1.382       .  A
C794       N1170   1.347   1_545  A
C795        C803   1.382       .  A
C795        C806   1.406       .  A
C796        C804   1.382       .  A
C796        C807   1.406       .  A
C797        C798   1.367       .  A
C797        H809   1.079       .  S
C799        C800   1.367       .  A
C799        H811   1.079       .  S
C801        C802   1.381       .  A
C801        H813   1.080       .  S
C802        H814   1.080       .  S
C803        C804   1.381       .  A
C803        H815   1.080       .  S
C804        H816   1.080       .  S
C805       C1173   1.413   1_545  A
C806        C827   1.489       .  S
C807        C820   1.489       .  S
C808       C1175   1.413   1_545  A
C819        C820   1.404       .  A
C819        C824   1.394       .  A
C819        C907   1.488       .  S
C820        C821   1.393       .  A
C821        C822   1.419       .  A
C821        H826   1.084       .  S
C822        C823   1.446       .  A
C822       C1095   1.507       .  S
C823        C824   1.418       .  A
C823       C1080   1.508       .  S
C824        H825   1.084       .  S
C827        C828   1.404       .  A
C827        C832   1.394       .  A
C828        C829   1.394       .  A
C828        C906   1.488       .  S
C829        C830   1.418       .  A
C829        H834   1.084       .  S
C830        C831   1.446       .  A
C830       C1152   1.508       .  S
C831        C832   1.419       .  A
C831       C1135   1.507       .  S
C832        H833   1.084       .  S
C835        C836   1.404       .  A
C835        C840   1.394       .  A
C835        C908   1.488       .  S
C836        C837   1.394       .  A
C836        C872   1.488       .  S
C837        C838   1.418       .  A
C837        H842   1.084       .  S
C838        C839   1.446       .  A
C838       C1093   1.508       .  S
C839        C840   1.418       .  A
C839       C1110   1.508       .  S
C840       H1225   1.084       .  S
H841       C1224   1.084       .  S
C843        C844   1.404       .  A
C843        C848   1.394       .  A
C843        C905   1.488       .  S
C844        C845   1.394       .  A
C844        C873   1.488       .  S
C845        C846   1.418       .  A
C845        H850   1.084       .  S
C846        C847   1.446       .  A
C846       C1137   1.508       .  S
C847        C848   1.418       .  A
C847       C1121   1.508       .  S
C848       H1233   1.084       .  S
H849       C1232   1.084       .  S
N851        C856   1.351       .  A
N851        C855   1.351       .  A
N851        H883   1.039       .  S
N852        C859   1.346       .  A
N852        C860   1.346       .  A
N853        C858   1.351       .  A
N853        C857   1.351       .  A
N853        H884   1.039       .  S
N854        C861   1.347       .  A
N854        C862   1.347       .  A
C855        C863   1.386       .  A
C855        C871   1.413       .  A
C856        C864   1.386       .  A
C857        C865   1.386       .  A
C857        C874   1.413       .  A
C858        C866   1.386       .  A
C859        C871   1.405       .  A
C859        C867   1.382       .  A
C860        C874   1.405       .  A
C860        C868   1.382       .  A
C861        C869   1.382       .  A
C861        C872   1.406       .  A
C862        C870   1.382       .  A
C862        C873   1.406       .  A
C863        C864   1.367       .  A
C863        H875   1.079       .  S
C865        C866   1.367       .  A
C865        H877   1.079       .  S
C867        C868   1.380       .  A
C867        H879   1.080       .  S
C868        H880   1.080       .  S
C869        C870   1.381       .  A
C869        H881   1.080       .  S
C870        H882   1.080       .  S
N885        C890   1.351       .  A
N885        C889   1.351       .  A
N885        H917   1.039       .  S
N886        C893   1.347   1_565  A
N886        C894   1.347   1_565  A
N887        C892   1.351       .  A
N887        C891   1.351       .  A
N887        H918   1.039       .  S
N888        C895   1.347       .  A
N888        C896   1.346       .  A
C889        C897   1.386       .  A
C889       C1289   1.412       .  A
C890        C906   1.413       .  A
C890        C898   1.386       .  A
C891        C899   1.386       .  A
C891       C1292   1.412       .  A
C892        C907   1.413       .  A
C892        C900   1.386       .  A
C893        C905   1.406       .  A
C893        C901   1.382       .  A
C894        C908   1.406       .  A
C894        C902   1.382       .  A
C895        C903   1.382       .  A
C895        C906   1.405       .  A
C896        C904   1.382       .  A
C896        C907   1.405       .  A
C897        C898   1.367       .  A
C897        H909   1.079       .  S
C898        H910   1.079       .  S
C899        C900   1.367       .  A
C899        H911   1.079       .  S
C900        H912   1.079       .  S
C901        C902   1.381       .  A
C901        H913   1.080       .  S
C902        H914   1.080       .  S
C903        C904   1.380       .  A
C903        H915   1.080       .  S
C904        H916   1.080       .  S
C905       C1273   1.412   1_545  A
C908       C1275   1.412   1_545  A
C919        C920   1.404       .  A
C919        C924   1.394       .  A
C919       C1023   1.489       .  S
C920        C921   1.394       .  A
C920        C971   1.488       .  S
C921        C922   1.418       .  A
C921        H926   1.084       .  S
C922        C923   1.446       .  A
C922       C1079   1.508       .  S
C923        C924   1.419       .  A
C923       C1096   1.507       .  S
C927        C928   1.404       .  A
C927        C932   1.394       .  A
C927       C1057   1.488       .  S
C928        C929   1.394       .  A
C928        C972   1.488       .  S
C929        C930   1.418       .  A
C929        H934   1.084       .  S
C930        C931   1.446       .  A
C930       C1109   1.508       .  S
C931        C932   1.418       .  A
C931       C1094   1.508       .  S
C935        C936   1.404       .  A
C935        C940   1.394       .  A
C935       C1024   1.489       .  S
C936        C937   1.394       .  A
C936       C1058   1.488       .  S
C937        C938   1.418       .  A
C937        H942   1.084       .  S
C938        C939   1.446       .  A
C938       C1081   1.508       .  S
C939        C940   1.419       .  A
C939       C1107   1.507       .  S
C940        H941   1.084       .  S
C943        C944   1.404       .  A
C943        C948   1.394       .  A
C943       C1056   1.488       .  S
C944        C945   1.394       .  A
C944        C973   1.488       .  S
C945        C946   1.418       .  A
C945        H950   1.084       .  S
C946        C947   1.446       .  A
C946       C1122   1.508       .  S
C947        C948   1.418       .  A
C947       C1138   1.508       .  S
N951        C956   1.351       .  A
N951        C955   1.351       .  A
N951        H983   1.039       .  S
N952        C959   1.346       .  A
N952        C960   1.346       .  A
N953        C958   1.351       .  A
N953        C957   1.351       .  A
N953        H984   1.039       .  S
N954        C961   1.347       .  A
N954        C962   1.347       .  A
C955        C963   1.386       .  A
C955        C971   1.413       .  A
C956       C1356   1.412   1_545  A
C956        C964   1.386       .  A
C957        C965   1.386       .  A
C957        C974   1.413       .  A
C958       C1357   1.412   1_545  A
C958        C966   1.386       .  A
C959        C971   1.405       .  A
C959        C967   1.382       .  A
C960        C974   1.405       .  A
C960        C968   1.382       .  A
C961        C969   1.382       .  A
C961        C972   1.406       .  A
C962        C970   1.382       .  A
C962        C973   1.406       .  A
C963        C964   1.367       .  A
C963        H975   1.079       .  S
C964        H976   1.079   1_545  S
C965        C966   1.367       .  A
C965        H977   1.079       .  S
C966        H978   1.079   1_545  S
C967        C968   1.380       .  A
C967        H979   1.080       .  S
C968        H980   1.080       .  S
C969        C970   1.381       .  A
C969        H981   1.080       .  S
C970        H982   1.080       .  S
C972       C1340   1.412       .  A
C973       C1342   1.412       .  A
C974        C985   1.488       .  S
C985        C986   1.404       .  A
C985        C990   1.394       .  A
C986        C987   1.393       .  A
C986       C1022   1.489       .  S
C987        C988   1.419       .  A
C988        C989   1.446       .  A
C988       C1136   1.507       .  S
C989        C990   1.418       .  A
C989       C1151   1.508       .  S
C990        H991   1.084       .  S
C993        C994   1.404       .  A
C993        C998   1.394       .  A
C993       C1055   1.488       .  S
C994        C995   1.394       .  A
C994       C1021   1.489       .  S
C995        C996   1.419       .  A
C995       H1000   1.084       .  S
C996        C997   1.446       .  A
C996       C1124   1.507       .  S
C997        C998   1.418       .  A
C997       C1149   1.508       .  S
C998        H999   1.084       .  S
N1001      C1006   1.351       .  A
N1001      C1005   1.351       .  A
N1001      H1033   1.039       .  S
N1002      C1009   1.347       .  A
N1002      C1010   1.347       .  A
N1003      C1008   1.351       .  A
N1003      C1007   1.351       .  A
N1003      H1034   1.039       .  S
C1005      C1013   1.386       .  A
C1005      C1405   1.413   1_545  A
C1006      C1014   1.386       .  A
C1007      C1015   1.386       .  A
C1007      C1408   1.413   1_545  A
C1008      C1016   1.386       .  A
C1009      C1021   1.406       .  A
C1009      C1017   1.382       .  A
C1010      C1024   1.406       .  A
C1010      C1018   1.382       .  A
C1011      C1019   1.382       .  A
C1011      C1022   1.406       .  A
C1012      C1020   1.382       .  A
C1012      C1023   1.406       .  A
C1013      C1014   1.367       .  A
C1013      H1025   1.079   1_545  S
C1014      H1026   1.079       .  S
C1015      C1016   1.367       .  A
C1015      H1027   1.079   1_545  S
C1016      H1028   1.079       .  S
C1017      C1018   1.381       .  A
C1017      H1029   1.080       .  S
C1018      H1030   1.080       .  S
C1019      C1020   1.381       .  A
C1019      H1031   1.080       .  S
C1020      H1032   1.080       .  S
C1021      C1389   1.413       .  A
C1024      C1391   1.413       .  A
N1035      C1040   1.351       .  A
N1035      C1039   1.351       .  A
N1035      H1067   1.039       .  S
N1036      C1043   1.346       .  A
N1036      C1044   1.346       .  A
N1037      C1042   1.351       .  A
N1037      C1041   1.351       .  A
N1037      H1068   1.039       .  S
C1039      C1047   1.386       .  A
C1039      C1055   1.412       .  A
C1040      C1048   1.386       .  A
C1041      C1049   1.386       .  A
C1041      C1058   1.413       .  A
C1042      C1050   1.386       .  A
C1043      C1055   1.405       .  A
C1043      C1051   1.382       .  A
C1044      C1058   1.405       .  A
C1044      C1052   1.382       .  A
C1045      C1053   1.382       .  A
C1045      C1056   1.406       .  A
C1046      C1054   1.382       .  A
C1046      C1057   1.406       .  A
C1047      C1048   1.367       .  A
C1047      H1059   1.079       .  S
C1048      H1060   1.079       .  S
C1049      C1050   1.367       .  A
C1049      H1061   1.079       .  S
C1050      H1062   1.079       .  S
C1051      C1052   1.380       .  A
C1051      H1063   1.080       .  S
C1052      H1064   1.080       .  S
C1053      C1054   1.381       .  A
C1053      H1065   1.080       .  S
C1054      H1066   1.080       .  S
O1069     Cu1077   2.031   1_556  S
O1069      C1079   1.273       .  A
O1070     Cu1077   2.022       .  S
O1070      C1080   1.287       .  A
O1071     Cu1077   2.031   1_556  S
O1071      C1081   1.273       .  A
O1072     Cu1077   2.022       .  S
O1072      C1082   1.287       .  A
O1073     Cu1078   2.031   1_554  S
O1073      C1082   1.273       .  A
O1074     Cu1078   2.022       .  S
O1074      C1081   1.287       .  A
O1075     Cu1078   2.031   1_554  S
O1075      C1080   1.273       .  A
O1076     Cu1078   2.022       .  S
O1076      C1079   1.287       .  A
Cu1077    Cu1078   2.355   1_554  S
O1083      C1093   1.286       .  A
O1084     Cu1091   2.030   1_556  S
O1084      C1094   1.273       .  A
O1085      C1095   1.286       .  A
O1086     Cu1091   2.031   1_556  S
O1086      C1096   1.273       .  A
O1087     Cu1092   2.021       .  S
O1088     Cu1092   2.031   1_554  S
O1088      C1095   1.273       .  A
O1089     Cu1092   2.022       .  S
O1090     Cu1092   2.030   1_554  S
O1090      C1093   1.273       .  A
O1097     Cu1105   2.031   1_556  S
O1097      C1107   1.273       .  A
O1098     Cu1105   2.021       .  S
O1098      C1492   1.286       .  A
O1099     Cu1105   2.030   1_556  S
O1099      C1109   1.273       .  A
O1100     Cu1105   2.022       .  S
O1100      C1494   1.286       .  A
O1101     Cu1106   2.030   1_554  S
O1101      C1110   1.273       .  A
O1102     Cu1490   2.022       .  S
O1102      C1109   1.286       .  A
O1103     Cu1106   2.031   1_554  S
O1103      C1108   1.273       .  A
O1104     Cu1490   2.021       .  S
O1104      C1107   1.286       .  A
Cu1105    Cu1490   2.355   1_554  S
Cu1106     O1486   2.022   1_545  S
Cu1106     O1488   2.021   1_545  S
Cu1106    Cu1489   2.355   1_546  S
C1108      O1482   1.286   1_545  A
C1110      O1484   1.286   1_545  A
O1111     Cu1119   2.022       .  S
O1111      C1505   1.286       .  A
O1112     Cu1119   2.030       .  S
O1112      C1122   1.273       .  A
O1113     Cu1119   2.021       .  S
O1113      C1507   1.286       .  A
O1114     Cu1119   2.031       .  S
O1114      C1124   1.273       .  A
O1115     Cu1504   2.021       .  S
O1115      C1124   1.286       .  A
O1116     Cu1120   2.031       .  S
O1116      C1123   1.273       .  A
O1117     Cu1504   2.022       .  S
O1117      C1122   1.286       .  A
O1118     Cu1120   2.030       .  S
O1118      C1121   1.273       .  A
Cu1119    Cu1504   2.355       .  S
Cu1120     O1499   2.021   1_545  S
Cu1120     O1501   2.022   1_545  S
Cu1120    Cu1503   2.355   1_545  S
C1121      O1495   1.286   1_545  A
C1123      O1497   1.286   1_545  A
O1125      C1135   1.286       .  A
O1126     Cu1133   2.031       .  S
O1126      C1136   1.273       .  A
O1127      C1137   1.286       .  A
O1128     Cu1133   2.030       .  S
O1128      C1138   1.273       .  A
O1129     Cu1134   2.022       .  S
O1130     Cu1134   2.030       .  S
O1130      C1137   1.273       .  A
O1131     Cu1134   2.021       .  S
O1132     Cu1134   2.031       .  S
O1132      C1135   1.273       .  A
O1139     Cu1147   2.031       .  S
O1139      C1149   1.273       .  A
O1140     Cu1147   2.022       .  S
O1140      C1150   1.287       .  A
O1141     Cu1147   2.031       .  S
O1141      C1151   1.273       .  A
O1142     Cu1147   2.022       .  S
O1142      C1152   1.287       .  A
O1143     Cu1148   2.031       .  S
O1143      C1152   1.273       .  A
O1144     Cu1148   2.022       .  S
O1144      C1151   1.287       .  A
O1145     Cu1148   2.031       .  S
O1145      C1150   1.273       .  A
O1146     Cu1148   2.022       .  S
O1146      C1149   1.287       .  A
Cu1147    Cu1148   2.355       .  S
C1153      C1154   1.404       .  A
C1153      C1158   1.394       .  A
C1153      C1258   1.488       .  S
C1154      C1155   1.393       .  A
C1154      C1189   1.489       .  S
C1155      C1156   1.419       .  A
C1156      C1157   1.446       .  A
C1156      C1507   1.507       .  S
C1157      C1158   1.418       .  A
C1157      C1534   1.508       .  S
C1158      H1159   1.084       .  S
C1161      C1162   1.404       .  A
C1161      C1166   1.394       .  A
C1161      C1255   1.488       .  S
C1162      C1163   1.394       .  A
C1162      C1192   1.489       .  S
C1163      C1164   1.419       .  A
C1163      H1168   1.084       .  S
C1164      C1165   1.446       .  A
C1164      C1492   1.507       .  S
C1165      C1166   1.418       .  A
C1165      C1466   1.508       .  S
C1166      H1167   1.084       .  S
N1169      C1174   1.351       .  A
N1169      C1173   1.351       .  A
N1169      H1201   1.039       .  S
N1171      C1176   1.351       .  A
N1171      C1175   1.351       .  A
N1171      H1202   1.039       .  S
N1172      C1179   1.347       .  A
N1172      C1180   1.347       .  A
C1173      C1181   1.386       .  A
C1174      C1182   1.386       .  A
C1175      C1183   1.386       .  A
C1176      C1184   1.386       .  A
C1177      C1189   1.406       .  A
C1177      C1185   1.382       .  A
C1178      C1192   1.406       .  A
C1178      C1186   1.382       .  A
C1179      C1187   1.382       .  A
C1179      C1190   1.406       .  A
C1180      C1188   1.382       .  A
C1180      C1191   1.406       .  A
C1181      C1182   1.367       .  A
C1181      H1193   1.079       .  S
C1183      C1184   1.367       .  A
C1183      H1195   1.079       .  S
C1185      C1186   1.381       .  A
C1185      H1197   1.080       .  S
C1186      H1198   1.080       .  S
C1187      C1188   1.381       .  A
C1187      H1199   1.080       .  S
C1188      H1200   1.080       .  S
C1190      C1211   1.489       .  S
C1191      C1204   1.489       .  S
C1203      C1204   1.404       .  A
C1203      C1208   1.394       .  A
C1203      C1291   1.488       .  S
C1204      C1205   1.393       .  A
C1205      C1206   1.419       .  A
C1205      H1210   1.084       .  S
C1206      C1207   1.446       .  A
C1206      C1479   1.507       .  S
C1207      C1208   1.418       .  A
C1207      C1464   1.508       .  S
C1208      H1209   1.084       .  S
C1211      C1212   1.404       .  A
C1211      C1216   1.394       .  A
C1212      C1213   1.394       .  A
C1212      C1290   1.488       .  S
C1213      C1214   1.418       .  A
C1213      H1218   1.084       .  S
C1214      C1215   1.446       .  A
C1214      C1536   1.508       .  S
C1215      C1216   1.419       .  A
C1215      C1519   1.507       .  S
C1216      H1217   1.084       .  S
C1219      C1220   1.404       .  A
C1219      C1224   1.394       .  A
C1219      C1292   1.488       .  S
C1220      C1221   1.394       .  A
C1220      C1256   1.488       .  S
C1221      C1222   1.418       .  A
C1221      H1226   1.084       .  S
C1222      C1223   1.446       .  A
C1222      C1477   1.508       .  S
C1223      C1224   1.418       .  A
C1223      C1494   1.508       .  S
C1227      C1228   1.404       .  A
C1227      C1232   1.394       .  A
C1227      C1289   1.488       .  S
C1228      C1229   1.394       .  A
C1228      C1257   1.488       .  S
C1229      C1230   1.418       .  A
C1229      H1234   1.084       .  S
C1230      C1231   1.446       .  A
C1230      C1521   1.508       .  S
C1231      C1232   1.418       .  A
C1231      C1505   1.508       .  S
N1235      C1240   1.351       .  A
N1235      C1239   1.351       .  A
N1235      H1267   1.039       .  S
N1236      C1243   1.346       .  A
N1236      C1244   1.346       .  A
N1237      C1242   1.351       .  A
N1237      C1241   1.351       .  A
N1237      H1268   1.039       .  S
N1238      C1245   1.347       .  A
N1238      C1246   1.347       .  A
C1239      C1247   1.386       .  A
C1239      C1255   1.413       .  A
C1240      C1248   1.386       .  A
C1241      C1249   1.386       .  A
C1241      C1258   1.413       .  A
C1242      C1250   1.386       .  A
C1243      C1255   1.405       .  A
C1243      C1251   1.382       .  A
C1244      C1258   1.405       .  A
C1244      C1252   1.382       .  A
C1245      C1253   1.382       .  A
C1245      C1256   1.406       .  A
C1246      C1254   1.382       .  A
C1246      C1257   1.406       .  A
C1247      C1248   1.367       .  A
C1247      H1259   1.079       .  S
C1249      C1250   1.367       .  A
C1249      H1261   1.079       .  S
C1251      C1252   1.380       .  A
C1251      H1263   1.080       .  S
C1252      H1264   1.080       .  S
C1253      C1254   1.381       .  A
C1253      H1265   1.080       .  S
C1254      H1266   1.080       .  S
N1269      C1274   1.351       .  A
N1269      C1273   1.351       .  A
N1269      H1301   1.039       .  S
N1270      C1277   1.347       .  A
N1270      C1278   1.347       .  A
N1271      C1276   1.351       .  A
N1271      C1275   1.351       .  A
N1271      H1302   1.039       .  S
N1272      C1279   1.346       .  A
N1272      C1280   1.346       .  A
C1273      C1281   1.386       .  A
C1274      C1290   1.413       .  A
C1274      C1282   1.386       .  A
C1275      C1283   1.386       .  A
C1276      C1291   1.413       .  A
C1276      C1284   1.386       .  A
C1277      C1289   1.406       .  A
C1277      C1285   1.382       .  A
C1278      C1292   1.406       .  A
C1278      C1286   1.382       .  A
C1279      C1287   1.382       .  A
C1279      C1290   1.405       .  A
C1280      C1288   1.382       .  A
C1280      C1291   1.405       .  A
C1281      C1282   1.367       .  A
C1281      H1293   1.079       .  S
C1282      H1294   1.079       .  S
C1283      C1284   1.367       .  A
C1283      H1295   1.079       .  S
C1284      H1296   1.079       .  S
C1285      C1286   1.381       .  A
C1285      H1297   1.080       .  S
C1286      H1298   1.080       .  S
C1287      C1288   1.380       .  A
C1287      H1299   1.080       .  S
C1288      H1300   1.080       .  S
C1303      C1304   1.404       .  A
C1303      C1308   1.394       .  A
C1303      C1407   1.489       .  S
C1304      C1305   1.394       .  A
C1304      C1355   1.488       .  S
C1305      C1306   1.418       .  A
C1305      H1310   1.084       .  S
C1306      C1307   1.446       .  A
C1306      C1463   1.508       .  S
C1307      C1308   1.419       .  A
C1307      C1480   1.507       .  S
C1311      C1312   1.404       .  A
C1311      C1316   1.394       .  A
C1311      C1441   1.488       .  S
C1312      C1313   1.394       .  A
C1312      C1356   1.488       .  S
C1313      C1314   1.418       .  A
C1313      H1318   1.084       .  S
C1314      C1315   1.446       .  A
C1314      C1493   1.508       .  S
C1315      C1316   1.418       .  A
C1315      C1478   1.508       .  S
C1319      C1320   1.404       .  A
C1319      C1324   1.394       .  A
C1319      C1408   1.489       .  S
C1320      C1321   1.394       .  A
C1320      C1442   1.488       .  S
C1321      C1322   1.418       .  A
C1321      H1326   1.084       .  S
C1322      C1323   1.446       .  A
C1322      C1465   1.508       .  S
C1323      C1324   1.419       .  A
C1323      C1491   1.507       .  S
C1324      H1325   1.084       .  S
C1327      C1328   1.404       .  A
C1327      C1332   1.394       .  A
C1327      C1440   1.488       .  S
C1328      C1329   1.394       .  A
C1328      C1357   1.488       .  S
C1329      C1330   1.418       .  A
C1329      H1334   1.084       .  S
C1330      C1331   1.446       .  A
C1330      C1506   1.508       .  S
C1331      C1332   1.418       .  A
C1331      C1522   1.508       .  S
N1335      C1340   1.351       .  A
N1335      C1339   1.351       .  A
N1335      H1367   1.039       .  S
N1336      C1343   1.346       .  A
N1336      C1344   1.346       .  A
N1337      C1342   1.351       .  A
N1337      C1341   1.351       .  A
N1337      H1368   1.039       .  S
N1338      C1345   1.347       .  A
N1338      C1346   1.347       .  A
C1339      C1347   1.386       .  A
C1339      C1355   1.413       .  A
C1340      C1348   1.386       .  A
C1341      C1349   1.386       .  A
C1341      C1358   1.412       .  A
C1342      C1350   1.386       .  A
C1343      C1355   1.405       .  A
C1343      C1351   1.382       .  A
C1344      C1358   1.405       .  A
C1344      C1352   1.382       .  A
C1345      C1353   1.382       .  A
C1345      C1356   1.406       .  A
C1346      C1354   1.382       .  A
C1346      C1357   1.406       .  A
C1347      C1348   1.367       .  A
C1347      H1359   1.079       .  S
C1348      H1360   1.079       .  S
C1349      C1350   1.367       .  A
C1349      H1361   1.079       .  S
C1350      H1362   1.079       .  S
C1351      C1352   1.380       .  A
C1351      H1363   1.080       .  S
C1352      H1364   1.080       .  S
C1353      C1354   1.381       .  A
C1353      H1365   1.080       .  S
C1354      H1366   1.080       .  S
C1358      C1369   1.488       .  S
C1369      C1370   1.404       .  A
C1369      C1374   1.394       .  A
C1370      C1371   1.393       .  A
C1370      C1406   1.489       .  S
C1371      C1372   1.419       .  A
C1372      C1373   1.446       .  A
C1372      C1520   1.507       .  S
C1373      C1374   1.418       .  A
C1373      C1535   1.508       .  S
C1374      H1375   1.084       .  S
C1377      C1378   1.404       .  A
C1377      C1382   1.394       .  A
C1377      C1439   1.488       .  S
C1378      C1379   1.394       .  A
C1378      C1405   1.489       .  S
C1379      C1380   1.419       .  A
C1379      H1384   1.084       .  S
C1380      C1381   1.446       .  A
C1380      C1508   1.507       .  S
C1381      C1382   1.418       .  A
C1381      C1533   1.508       .  S
C1382      H1383   1.084       .  S
N1385      C1390   1.351       .  A
N1385      C1389   1.351       .  A
N1385      H1417   1.039       .  S
N1386      C1393   1.347       .  A
N1386      C1394   1.347       .  A
N1387      C1392   1.351       .  A
N1387      C1391   1.351       .  A
N1387      H1418   1.039       .  S
C1389      C1397   1.386       .  A
C1390      C1398   1.386       .  A
C1391      C1399   1.386       .  A
C1392      C1400   1.386       .  A
C1393      C1405   1.406       .  A
C1393      C1401   1.382       .  A
C1394      C1408   1.406       .  A
C1394      C1402   1.382       .  A
C1395      C1403   1.382       .  A
C1395      C1406   1.406       .  A
C1396      C1404   1.382       .  A
C1396      C1407   1.406       .  A
C1397      C1398   1.367       .  A
C1397      H1409   1.079       .  S
C1398      H1410   1.079       .  S
C1399      C1400   1.367       .  A
C1399      H1411   1.079       .  S
C1400      H1412   1.079       .  S
C1401      C1402   1.381       .  A
C1401      H1413   1.080       .  S
C1402      H1414   1.080       .  S
C1403      C1404   1.381       .  A
C1403      H1415   1.080       .  S
C1404      H1416   1.080       .  S
N1419      C1424   1.351       .  A
N1419      C1423   1.351       .  A
N1419      H1451   1.039       .  S
N1420      C1427   1.346       .  A
N1420      C1428   1.346       .  A
N1421      C1426   1.351       .  A
N1421      C1425   1.351       .  A
N1421      H1452   1.039       .  S
C1423      C1431   1.386       .  A
C1423      C1439   1.412       .  A
C1424      C1432   1.386       .  A
C1425      C1433   1.386       .  A
C1425      C1442   1.412       .  A
C1426      C1434   1.386       .  A
C1427      C1439   1.405       .  A
C1427      C1435   1.382       .  A
C1428      C1442   1.405       .  A
C1428      C1436   1.382       .  A
C1429      C1437   1.382       .  A
C1429      C1440   1.406       .  A
C1430      C1438   1.382       .  A
C1430      C1441   1.406       .  A
C1431      C1432   1.367       .  A
C1431      H1443   1.079       .  S
C1432      H1444   1.079       .  S
C1433      C1434   1.367       .  A
C1433      H1445   1.079       .  S
C1434      H1446   1.079       .  S
C1435      C1436   1.380       .  A
C1435      H1447   1.080       .  S
C1436      H1448   1.080       .  S
C1437      C1438   1.381       .  A
C1437      H1449   1.080       .  S
C1438      H1450   1.080       .  S
O1453     Cu1461   2.031   1_556  S
O1453      C1463   1.273       .  A
O1454     Cu1461   2.022       .  S
O1454      C1464   1.287       .  A
O1455     Cu1461   2.031   1_556  S
O1455      C1465   1.273       .  A
O1456     Cu1461   2.022       .  S
O1456      C1466   1.287       .  A
O1457     Cu1462   2.031   1_554  S
O1457      C1466   1.273       .  A
O1458     Cu1462   2.022       .  S
O1458      C1465   1.287       .  A
O1459     Cu1462   2.031   1_554  S
O1459      C1464   1.273       .  A
O1460     Cu1462   2.022       .  S
O1460      C1463   1.287       .  A
Cu1461    Cu1462   2.355   1_554  S
O1467      C1477   1.286       .  A
O1468     Cu1475   2.030   1_556  S
O1468      C1478   1.273       .  A
O1469      C1479   1.286       .  A
O1470     Cu1475   2.031   1_556  S
O1470      C1480   1.273       .  A
O1471     Cu1476   2.021       .  S
O1472     Cu1476   2.031   1_554  S
O1472      C1479   1.273       .  A
O1473     Cu1476   2.022       .  S
O1474     Cu1476   2.030   1_554  S
O1474      C1477   1.273       .  A
O1481     Cu1489   2.031   1_556  S
O1481      C1491   1.273       .  A
O1482     Cu1489   2.021       .  S
O1483     Cu1489   2.030   1_556  S
O1483      C1493   1.273       .  A
O1484     Cu1489   2.022       .  S
O1485     Cu1490   2.030   1_554  S
O1485      C1494   1.273       .  A
O1486      C1493   1.286       .  A
O1487     Cu1490   2.031   1_554  S
O1487      C1492   1.273       .  A
O1488      C1491   1.286       .  A
O1495     Cu1503   2.022       .  S
O1496     Cu1503   2.030       .  S
O1496      C1506   1.273       .  A
O1497     Cu1503   2.021       .  S
O1498     Cu1503   2.031       .  S
O1498      C1508   1.273       .  A
O1499      C1508   1.286       .  A
O1500     Cu1504   2.031       .  S
O1500      C1507   1.273       .  A
O1501      C1506   1.286       .  A
O1502     Cu1504   2.030       .  S
O1502      C1505   1.273       .  A
O1509      C1519   1.286       .  A
O1510     Cu1517   2.031       .  S
O1510      C1520   1.273       .  A
O1511      C1521   1.286       .  A
O1512     Cu1517   2.030       .  S
O1512      C1522   1.273       .  A
O1513     Cu1518   2.022       .  S
O1514     Cu1518   2.030       .  S
O1514      C1521   1.273       .  A
O1515     Cu1518   2.021       .  S
O1516     Cu1518   2.031       .  S
O1516      C1519   1.273       .  A
O1523     Cu1531   2.031       .  S
O1523      C1533   1.273       .  A
O1524     Cu1531   2.022       .  S
O1524      C1534   1.287       .  A
O1525     Cu1531   2.031       .  S
O1525      C1535   1.273       .  A
O1526     Cu1531   2.022       .  S
O1526      C1536   1.287       .  A
O1527     Cu1532   2.031       .  S
O1527      C1536   1.273       .  A
O1528     Cu1532   2.022       .  S
O1528      C1535   1.287       .  A
O1529     Cu1532   2.031       .  S
O1529      C1534   1.273       .  A
O1530     Cu1532   2.022       .  S
O1530      C1533   1.287       .  A
Cu1531    Cu1532   2.355       .  S
