geometry optimzed in LAMMPS
_audit_creation_date              2020-11-30 
_audit_creation_method            'lammps2cif' 
_symmetry_space_group_name_H-M    'P1' 
_symmetry_Int_Tables_number       1 
_symmetry_cell_setting            triclinic 
loop_ 
_symmetry_equiv_pos_as_xyz 
  x,y,z 
_cell_length_a                    31.88482584 
_cell_length_b                    31.51005428048427 
_cell_length_c                    38.24751236542287 
_cell_angle_alpha                 90.32090548696357 
_cell_angle_beta                  89.40157041063921 
_cell_angle_gamma                 120.11081534273711 
loop_ 
_atom_site_label 
_atom_site_type_symbol 
_atom_site_fract_x 
_atom_site_fract_y 
_atom_site_fract_z 
_atom_site_charge 
C1          C  0.27206434  0.23368062  0.09611723     0.81800
N2          N  0.30076702  0.27120187  0.11807456    -0.76500
C3          C  0.29151116  0.26639178  0.15312211     0.84200
N4          N  0.25365786  0.22462973  0.16571331    -0.76500
C5          C  0.22498388  0.18725633  0.14415986     0.84300
N6          N  0.23411576  0.19162426  0.10920867    -0.78200
C7          C  0.25618729  0.23186913  0.42493888     0.81800
N8          N  0.28691183  0.27029039  0.40411734    -0.76500
C9          C  0.27757088  0.26945140  0.36935631     0.84200
N10         N  0.23773737  0.23080761  0.35592303    -0.76500
C11         C  0.20702563  0.19240577  0.37609042     0.84300
N12         N  0.21642269  0.19251912  0.41076759    -0.78200
C13         C  0.19265771  0.45206367  0.09917334     0.81800
N14         N  0.16170749  0.45869088  0.12034985    -0.76500
C15         C  0.16717117  0.46036615  0.15571858     0.84200
N16         N  0.20372949  0.45587564  0.16947022    -0.76500
C17         C  0.23436633  0.44884889  0.14867472     0.84300
N18         N  0.22873346  0.44672497  0.11342704    -0.78200
C19         C  0.18828377  0.45422193  0.42611958     0.81800
N20         N  0.22456465  0.44903641  0.41135336    -0.76500
C21         C  0.23203042  0.45351790  0.37619707     0.84200
N22         N  0.20275830  0.46253635  0.35595421    -0.76500
C23         C  0.16573365  0.46654892  0.36999650     0.84300
N24         N  0.15851099  0.46264175  0.40537672    -0.78200
C25         C  0.50493622  0.21964396  0.09118299     0.81800
N26         N  0.50714504  0.25643207  0.11135834    -0.76500
C27         C  0.50035266  0.25041298  0.14655941     0.84200
N28         N  0.49217346  0.20768850  0.16136759    -0.76500
C29         C  0.49075707  0.17103843  0.14127325     0.84300
N30         N  0.49705932  0.17733036  0.10620187    -0.78200
C31         C  0.49054058  0.21170298  0.43192977     0.81800
N32         N  0.48119794  0.17149267  0.41263997    -0.76500
C33         C  0.47603934  0.17203954  0.37746789     0.84200
N34         N  0.47977647  0.21233154  0.36207111    -0.76500
C35         C  0.48949146  0.25258195  0.38102553     0.84300
N36         N  0.49514243  0.25244239  0.41611506    -0.78200
O37         O  0.36371791  0.02108146  0.23358457    -0.86600
C38         C  0.11200463  0.12532470  0.30642968     1.13400
O39         O  0.42410465  0.47288437  0.26248520    -1.34400
O40         O  0.08399044  0.12714794  0.21469336    -0.88100
O41         O  0.32763197  0.43599619  0.22245012    -0.88800
O42         O  0.42518050  0.42333720  0.18914526    -0.77600
O43         O  0.47133597  0.07591515  0.24219513    -0.99700
C44         C  0.06253866  0.47190172  0.19735781     1.23500
O45         O  0.47112894  0.41818458  0.26259316    -1.34600
Mn46       Mn  0.47261020  0.47015783  0.30048828     1.82100
O47         O  0.02537914  0.47275641  0.18834371    -0.76700
O48         O  0.12474303  0.08657086  0.21788644    -0.86100
C49         C  0.06021606  0.47348080  0.32649809     1.14500
C50         C  0.11732593  0.11909181  0.20450638     1.09300
O51         O  0.42142032  0.42071684  0.33540273    -0.77600
O52         O  0.02579062  0.03152793  0.25655408    -1.31300
O53         O  0.37458433  0.37523182  0.29517405    -0.96800
C54         C  0.46802126  0.32348904  0.21232789     1.08000
Mn55       Mn  0.09458823  0.03592396  0.25917099     1.48600
O56         O  0.42794684  0.31896137  0.22284383    -0.86000
Mn57       Mn  0.35389338  0.40887322  0.26189149     1.49600
O58         O  0.35988939  0.01057204  0.31097045    -0.89900
C59         C  0.47329329  0.07490433  0.21057633     1.21200
C60         C  0.33340542  0.47705375  0.31099770     1.13200
Mn61       Mn  0.47476159  0.47143664  0.22533636     1.81000
O62         O  0.06923451  0.47302184  0.29527844    -0.95000
Mn63       Mn  0.41506751  0.04052445  0.27310568     1.49300
C64         C  0.33799662  0.47798809  0.21068293     1.09800
Mn65       Mn  0.03759741  0.41786314  0.26210254     1.49900
C66         C  0.46444825  0.32418991  0.31299664     1.12700
O67         O  0.37662520  0.37638542  0.22841876    -1.00800
O68         O  0.12087765  0.09179720  0.29700948    -0.90500
C69         C  0.38703103  0.38503492  0.19733486     1.23900
O70         O  0.07046455  0.47243361  0.22862977    -1.01200
O71         O  0.08009857  0.13229546  0.29219417    -0.88600
O72         O  0.01129584  0.36430350  0.30158790    -0.88200
O73         O  0.32533654  0.43479907  0.30140335    -0.88300
Mn74       Mn  0.02915947  0.09994814  0.25229731     1.47900
O75         O  0.02284914  0.47485678  0.33486566    -0.76700
C76         C  0.38328448  0.38318617  0.32648308     1.17000
O77         O  0.47357454  0.03873370  0.19669783    -0.75500
O78         O  0.46796444  0.01807208  0.34410381    -0.75100
Mn79       Mn  0.40440371  0.35005168  0.26163305     1.51100
O80         O  0.01232668  0.36398470  0.22298940    -0.87400
O81         O  0.46794031  0.06642248  0.30659579    -0.95000
O82         O  0.42538086  0.31825632  0.30007356    -0.90000
C83         C  0.46727673  0.05637687  0.33725559     1.14800
C84         C  0.46760831  0.13090525  0.35465598    -0.14900
C85         C  0.46891537  0.09066966  0.36450235    -0.30100
H86         H  0.46267615  0.13587593  0.32717363     0.14100
H87         H  0.96867492  0.14123254  0.31719706     0.14700
C88         C  0.45959687  0.28747468  0.33863858    -0.14900
C89         C  0.49278817  0.29519911  0.36286976    -0.30100
H90         H  0.42782810  0.25109102  0.33623266     0.14100
H91         H  0.02522157  0.29413888  0.32588140     0.14700
C92         C  0.47621609  0.11691476  0.19151465    -0.14900
C93         C  0.48412512  0.12510166  0.15715060    -0.30100
H94         H  0.47353382  0.14408983  0.20763136     0.14100
H95         H  0.96987256  0.14063621  0.19832367     0.14700
C96         C  0.50422639  0.29090177  0.16886902    -0.14900
C97         C  0.46553422  0.28687181  0.18639479    -0.30100
H98         H  0.03337138  0.33903520  0.16009123     0.14100
H99         H  0.43040807  0.25427102  0.18235771     0.14700
C100        C  0.49256928  0.21015555  0.46926605    -0.17000
C101        C  0.49153506  0.20864735  0.50072099     0.07100
C102        C  0.51309362  0.22543925  0.02229877     0.09000
C103        C  0.51020313  0.22465083  0.05380868    -0.17800
C104        C  0.27148098  0.44886545  0.35929591    -0.14900
C105        C  0.29930076  0.48176120  0.33489607    -0.30100
H106        H  0.27642979  0.41813963  0.36572381     0.14100
H107        H  0.24896099  0.93103010  0.33656903     0.14700
C108        C  0.09202059  0.47146149  0.35387072    -0.14900
C109        C  0.13398893  0.47346373  0.34538309    -0.30100
H110        H  0.08014442  0.46691894  0.38104772     0.14100
H111        H  0.14054333  0.97986607  0.31846113     0.14700
C112        C  0.30596596  0.48200064  0.18496175    -0.14900
C113        C  0.27385572  0.44482404  0.16508996    -0.30100
H114        H  0.30625152  0.51663706  0.18432208     0.14100
H115        H  0.27367490  0.41032382  0.16374602     0.14700
C116        C  0.09514270  0.46884480  0.17075536    -0.14900
C117        C  0.13430619  0.46630704  0.18027821    -0.30100
H118        H  0.08626474  0.46749818  0.14336895     0.14100
H119        H  0.14240663  0.46744447  0.20783890     0.14700
C120        C  0.18825645  0.45192883  0.06159143    -0.17000
C121        C  0.18671730  0.45225504  0.02996175     0.07100
C122        C  0.18201209  0.45157194  0.49563793     0.09000
C123        C  0.18286105  0.45222422  0.46388118    -0.17800
C124        C  0.30977156  0.30817053  0.34468566    -0.14900
C125        C  0.35109316  0.34843523  0.35349764    -0.30100
H126        H  0.29917727  0.30218850  0.31737884     0.14100
H127        H  0.36222234  0.35527556  0.38064702     0.14700
C128        C  0.16509512  0.15108138  0.35887651    -0.13300
C129        C  0.14269095  0.16091544  0.33314556    -0.30100
H130        H  0.15613576  0.11365441  0.36448460     0.14100
H131        H  0.15007078  0.19835066  0.32983817     0.14700
C132        C  0.32099047  0.30500897  0.17854195    -0.14900
C133        C  0.35726801  0.34970993  0.16999771    -0.30100
H134        H  0.31229053  0.29557145  0.20610100     0.14100
H135        H  0.36675075  0.35970417  0.14261495     0.14700
C136        C  0.18235831  0.14459136  0.15944192    -0.14900
C137        C  0.15101653  0.15265777  0.17787400    -0.30100
H138        H  0.18043265  0.10917516  0.15978120     0.14100
H139        H  0.15326480  0.18819564  0.17567792     0.14700
C140        C  0.28008038  0.23916802  0.05883324    -0.17000
C141        C  0.28374101  0.24201314  0.02731371     0.07100
C142        C  0.27041103  0.23668374  0.49366597     0.09000
C143        C  0.26468390  0.23390057  0.46223319    -0.17800
C144        C  0.27061597  0.24108700  0.60021007     0.81800
N145        N  0.29987252  0.28160936  0.61976499    -0.76500
C146        C  0.29290108  0.28089644  0.65507568     0.84200
N147        N  0.25645103  0.23995261  0.67027403    -0.76500
C148        C  0.22749817  0.19943173  0.65110917     0.84300
N149        N  0.23491003  0.19997978  0.61604997    -0.78200
C150        C  0.27703651  0.23740126  0.92124948     0.81800
N151        N  0.30543613  0.27619041  0.90001604    -0.76500
C152        C  0.29853626  0.27198859  0.86477859     0.84200
N153        N  0.26330624  0.22925600  0.85122367    -0.76500
C154        C  0.23529506  0.19047716  0.87213396     0.84300
N155        N  0.24191961  0.19453993  0.90724662    -0.78200
C156        C  0.19261467  0.45711477  0.60221174     0.81800
N157        N  0.16099716  0.46384881  0.62252744    -0.76500
C158        C  0.16754687  0.46959210  0.65774266     0.84200
N159        N  0.20592263  0.46909855  0.67225898    -0.76500
C160        C  0.23743144  0.46207134  0.65244311     0.84300
N161        N  0.23044773  0.45558580  0.61730797    -0.78200
C162        C  0.19147165  0.44999408  0.92350728     0.81800
N163        N  0.22687621  0.44343312  0.90877028    -0.76500
C164        C  0.22949255  0.44032663  0.87345168     0.84200
N165        N  0.19738706  0.44448801  0.85304987    -0.76500
C166        C  0.16259878  0.45192831  0.86727367     0.84300
N167        N  0.15944576  0.45456629  0.90272683    -0.78200
C168        C  0.47486652  0.20222599  0.60581878     0.81800
N169        N  0.46861380  0.23707196  0.62225096    -0.76500
C170        C  0.45898935  0.23339263  0.65709687     0.84200
N171        N  0.45610299  0.19526071  0.67527242    -0.76500
C172        C  0.46331546  0.16095869  0.65919498     0.84300
N173        N  0.47255024  0.16432820  0.62427508    -0.78200
C174        C  0.51411819  0.22687006  0.91630713     0.81800
N175        N  0.50441290  0.18712153  0.89623648    -0.76500
C176        C  0.50042765  0.18911643  0.86091925     0.84200
N177        N  0.50551377  0.23040797  0.84624192    -0.76500
C178        C  0.51550192  0.27009745  0.86604751     0.84300
N179        N  0.51996129  0.26842449  0.90113881    -0.78200
O180        O  0.36871910  0.00617269  0.72252503    -0.86600
C181        C  0.12513497  0.11470598  0.81670126     1.13400
O182        O  0.43099510  0.48610661  0.76307087    -1.34400
O183        O  0.09410107  0.12914695  0.73129937    -0.88100
O184        O  0.33321890  0.44643595  0.72462713    -0.88800
O185        O  0.43214135  0.44135671  0.68624041    -0.77600
O186        O  0.47631343  0.06276516  0.72589432    -0.99700
C187        C  0.05968251  0.47591632  0.69890824     1.23500
O188        O  0.48327475  0.43736027  0.75815747    -1.34600
Mn189      Mn  0.48225735  0.48486963  0.79851192     1.82100
O190        O  0.02186596  0.47656154  0.69082398    -0.76700
O191        O  0.13031574  0.08462035  0.72342254    -0.86100
C192        C  0.06519107  0.47463746  0.82763315     1.14500
C193        C  0.12547197  0.12146256  0.71649791     1.09300
O194        O  0.43321934  0.43171742  0.83297104    -0.77600
O195        O  0.03298378  0.02694659  0.76455511    -1.31300
O196        O  0.38708083  0.38679804  0.79234588    -0.96800
C197        C  0.48526737  0.35037994  0.70389091     1.08000
Mn198      Mn  0.10107318  0.02938036  0.76232440     1.48600
O199        O  0.44430335  0.34175525  0.71571311    -0.86000
Mn200      Mn  0.36283105  0.41979583  0.76162202     1.49600
O201        O  0.37285416  0.01618295  0.80021678    -0.89900
C202        C  0.47394905  0.05313524  0.69492101     1.21200
C203        C  0.34241858  0.47930860  0.81976945     1.13200
Mn204      Mn  0.48217805  0.49081922  0.72299016     1.81000
O205        O  0.07267738  0.47542335  0.79611688    -0.95000
Mn206      Mn  0.42427981  0.03651869  0.76027329     1.49300
C207        C  0.33750163  0.48820150  0.71895549     1.09800
Mn208      Mn  0.03871932  0.42065256  0.76310490     1.49900
C209        C  0.48425117  0.34329429  0.80395784     1.12700
O210        O  0.38763629  0.39238479  0.72605663    -1.00800
O211        O  0.13303281  0.08273004  0.80226564    -0.90500
C212        C  0.39530302  0.40164842  0.69486361     1.23900
O213        O  0.06858042  0.47598103  0.72997586    -1.01200
O214        O  0.09103268  0.12187430  0.80804051    -0.88600
O215        O  0.01515654  0.36667649  0.80212761    -0.88200
O216        O  0.33311303  0.44028232  0.80331661    -0.88300
Mn217      Mn  0.03981517  0.09702987  0.76928170     1.47900
O218        O  0.02901940  0.47672134  0.83785211    -0.76700
C219        C  0.39621498  0.39322829  0.82360971     1.17000
O220        O  0.47432167  0.01484828  0.68642216    -0.75500
O221        O  0.48449582  0.03135210  0.83342654    -0.75100
Mn222      Mn  0.41896611  0.36714117  0.75665806     1.51100
O223        O  0.01103764  0.36599860  0.72409502    -0.87400
O224        O  0.48084511  0.07326492  0.79136872    -0.95000
O225        O  0.44397158  0.33595831  0.79251763    -0.90000
C226        C  0.48366805  0.06837557  0.82288917     1.14800
C227        C  0.49123797  0.14801648  0.83746572    -0.14900
C228        C  0.48823464  0.10612951  0.84817539    -0.30100
H229        H  0.48859131  0.15350872  0.80969486     0.14100
H230        H  0.99603589  0.09591416  0.88584691     0.14700
C231        C  0.48215028  0.30602068  0.82782503    -0.14900
C232        C  0.51812517  0.31307896  0.84916541    -0.30100
H233        H  0.44986560  0.26987414  0.82657223     0.14100
H234        H  0.04071302  0.34048643  0.86144684     0.14700
C235        C  0.47050719  0.08626125  0.66925299    -0.14900
C236        C  0.46329514  0.12259463  0.68097126    -0.30100
H237        H  0.47456693  0.08160007  0.64157374     0.14100
H238        H  0.96097107  0.08585744  0.63756514     0.14700
C239        C  0.45194778  0.27010185  0.67594638    -0.14900
C240        C  0.48638413  0.31770525  0.67656328    -0.30100
H241        H  0.01324037  0.28160436  0.70672745     0.14100
H242        H  0.51907837  0.33040210  0.66078574     0.14700
C243        C  0.51548094  0.22451321  0.95378541    -0.17000
C244        C  0.51504888  0.22465017  0.98534982     0.07100
C245        C  0.48780081  0.20673228  0.53748231     0.09000
C246        C  0.48283671  0.20489185  0.56877884    -0.17800
C247        C  0.26839577  0.43590240  0.85621535    -0.14900
C248        C  0.31049319  0.47670631  0.84891359    -0.30100
H249        H  0.25835368  0.40208156  0.84218990     0.14100
H250        H  0.30637846  0.01409835  0.83920384     0.14700
C251        C  0.09654665  0.46924577  0.85332310    -0.14900
C252        C  0.13025663  0.45815535  0.84314156    -0.30100
H253        H  0.09086264  0.47306505  0.88096020     0.14100
H254        H  0.14811776  0.96431444  0.81573277     0.14700
C255        C  0.30243145  0.49192776  0.69586891    -0.14900
C256        C  0.27809876  0.46048144  0.66972792    -0.30100
H257        H  0.29512887  0.52148910  0.70150018     0.14100
H258        H  0.28717540  0.43291643  0.66170676     0.14700
C259        C  0.09244060  0.47374563  0.67191798    -0.14900
C260        C  0.13368262  0.47513525  0.68149614    -0.30100
H261        H  0.08230078  0.46992107  0.64460272     0.14100
H262        H  0.14302734  0.47923686  0.70901924     0.14700
C263        C  0.18704950  0.45334922  0.56454360    -0.17000
C264        C  0.18383722  0.45189365  0.53289463     0.07100
C265        C  0.18674068  0.45242829  0.99279582     0.09000
C266        C  0.18809007  0.45188880  0.96113759    -0.17800
C267        C  0.32826340  0.31233369  0.84024954    -0.14900
C268        C  0.36572312  0.35579166  0.84989317    -0.30100
H269        H  0.31947582  0.30516170  0.81273871     0.14100
H270        H  0.37532161  0.36334406  0.87723193     0.14700
C271        C  0.19582951  0.14611487  0.85620392    -0.13300
C272        C  0.15837415  0.14855779  0.84315063    -0.30100
H273        H  0.20105483  0.11523740  0.85045499     0.14100
H274        H  0.15468975  0.18029730  0.84962131     0.14700
C275        C  0.32446130  0.32248769  0.67835086    -0.14900
C276        C  0.36340660  0.36520733  0.66828362    -0.30100
H277        H  0.31565507  0.31636522  0.70604739     0.14100
H278        H  0.37304072  0.37244171  0.64079943     0.14700
C279        C  0.18831157  0.15539613  0.66875406    -0.14900
C280        C  0.15997444  0.16049203  0.69265810    -0.30100
H281        H  0.18333699  0.11947467  0.66267399     0.14100
H282        H  0.16367304  0.19648352  0.69611615     0.14700
C283        C  0.27529561  0.24191196  0.56247151    -0.17000
C284        C  0.27472802  0.24010134  0.53076376     0.07100
C285        C  0.28473713  0.24306702  0.99024179     0.09000
C286        C  0.28284555  0.24180853  0.95866192    -0.17800
C287        C  0.27195937  0.73449481  0.10131499     0.81800
N288        N  0.29918868  0.77502920  0.12128631    -0.76500
C289        C  0.28939206  0.77404840  0.15609621     0.84200
N290        N  0.25227158  0.73292375  0.17037440    -0.76500
C291        C  0.22526881  0.69241450  0.15072620     0.84300
N292        N  0.23530947  0.69310368  0.11611574    -0.78200
C293        C  0.25243107  0.72939667  0.42314486     0.81800
N294        N  0.28371335  0.76757613  0.40239138    -0.76500
C295        C  0.28113001  0.76210186  0.36692606     0.84200
N296        N  0.24742114  0.71914979  0.35287044    -0.76500
C297        C  0.21667305  0.68132292  0.37343803     0.84300
N298        N  0.21875513  0.68647188  0.40859107    -0.78200
C299        C  0.19132048  0.94969044  0.10046456     0.81800
N300        N  0.16025591  0.95646585  0.12134174    -0.76500
C301        C  0.16757248  0.96191388  0.15648991     0.84200
N302        N  0.20601585  0.96115523  0.17027142    -0.76500
C303        C  0.23705964  0.95442104  0.14979162     0.84300
N304        N  0.22952358  0.94820633  0.11477587    -0.78200
C305        C  0.20325100  0.99933681  0.42754668     0.81800
N306        N  0.24343839  0.00097177  0.41368401    -0.76500
C307        C  0.24698962  0.99596273  0.37878139     0.84200
N308        N  0.21063932  0.99016026  0.35767540    -0.76500
C309        C  0.17082271  0.98970928  0.37089503     0.84300
N310        N  0.16679670  0.99396044  0.40616881    -0.78200
C311        C  0.51696348  0.72075247  0.10363434     0.81800
N312        N  0.51901250  0.76141759  0.11781001    -0.76500
C313        C  0.51109199  0.76307574  0.15257249     0.84200
N314        N  0.50172576  0.72429548  0.17309403    -0.76500
C315        C  0.50023927  0.68381472  0.15931627     0.84300
N316        N  0.50766836  0.68193343  0.12435598    -0.78200
C317        C  0.51557685  0.72350122  0.41825138     0.81800
N318        N  0.50189569  0.68147250  0.39982950    -0.76500
C319        C  0.48932051  0.67900102  0.36563670     0.84200
N320        N  0.48992516  0.71808805  0.35058701    -0.76500
C321        C  0.50376679  0.75986867  0.36892349     0.84300
N322        N  0.51696960  0.76270904  0.40267584    -0.78200
O323        O  0.37290364  0.51810313  0.22191051    -0.86600
C324        C  0.11260530  0.61325538  0.31330641     1.13400
O325        O  0.41974703  0.97629220  0.26733979    -1.34400
O326        O  0.08625706  0.62511218  0.22471091    -0.88100
O327        O  0.32767836  0.94011426  0.22365864    -0.88800
O328        O  0.42366039  0.93498345  0.18990284    -0.77600
O329        O  0.48025755  0.57081292  0.23041182    -0.99700
C330        C  0.06397078  0.97544510  0.19665622     1.23500
O331        O  0.47074684  0.92618964  0.26255976    -1.34600
Mn332      Mn  0.46940449  0.97259588  0.30377885     1.82100
O333        O  0.02618310  0.97421812  0.18683683    -0.76700
O334        O  0.12460896  0.58192386  0.22228761    -0.86100
C335        C  0.06139842  0.98655975  0.32562854     1.14500
C336        C  0.11902891  0.61740073  0.21261141     1.09300
O337        O  0.41859523  0.91902964  0.33648672    -0.77600
O338        O  0.02578438  0.52542012  0.26117608    -1.31300
O339        O  0.37260141  0.87614733  0.29487658    -0.96800
C340        C  0.47258211  0.83738392  0.20899748     1.08000
Mn341      Mn  0.09383746  0.52779977  0.26158633     1.48600
O342        O  0.43177841  0.82999619  0.22004821    -0.86000
Mn343      Mn  0.35169093  0.91071732  0.26242573     1.49600
O344        O  0.36774581  0.51687067  0.29875685    -0.89900
C345        C  0.48216112  0.56367117  0.19915911     1.21200
C346        C  0.32375344  0.96810881  0.31667361     1.13200
Mn347      Mn  0.47187181  0.98202138  0.22824148     1.81000
O348        O  0.07030933  0.98381059  0.29469529    -0.95000
Mn349      Mn  0.42346712  0.53999956  0.26191666     1.49300
C350        C  0.33408200  0.98252756  0.21712299     1.09800
Mn351      Mn  0.04055836  0.92669946  0.26330724     1.49900
C352        C  0.46858069  0.83092961  0.30849954     1.12700
O353        O  0.37863896  0.88410891  0.22849530    -1.00800
O354        O  0.12128704  0.58095536  0.30078281    -0.90500
C355        C  0.38772656  0.89423018  0.19754658     1.23900
O356        O  0.07248159  0.97869937  0.22803170    -1.01200
O357        O  0.08044400  0.62173627  0.30172248    -0.88600
O358        O  0.01561377  0.87632758  0.30433637    -0.88200
O359        O  0.31720368  0.92972037  0.30092135    -0.88300
Mn360      Mn  0.03054449  0.59526169  0.26161181     1.47900
O361        O  0.02396058  0.98835210  0.33311431    -0.76700
C362        C  0.38070088  0.88216020  0.32639430     1.17000
O363        O  0.47932299  0.52420144  0.18989446    -0.75500
O364        O  0.47345749  0.52088623  0.33669652    -0.75100
Mn365      Mn  0.40605402  0.85648776  0.26011760     1.51100
O366        O  0.01707694  0.87042027  0.22615825    -0.87400
O367        O  0.47539246  0.56757085  0.29641988    -0.95000
O368        O  0.42849463  0.82399501  0.29689474    -0.90000
C369        C  0.47425938  0.55932011  0.32765565     1.14800
C370        C  0.47754729  0.63629262  0.34329228    -0.14900
C371        C  0.47832666  0.59606740  0.35367263    -0.30100
H372        H  0.47046588  0.63969279  0.31591390     0.14100
H373        H  0.97231809  0.59041014  0.37886989     0.14700
C374        C  0.46654960  0.79402215  0.33255656    -0.14900
C375        C  0.50433521  0.80159293  0.35196889    -0.30100
H376        H  0.43389978  0.75817645  0.33259445     0.14100
H377        H  0.04572290  0.82978126  0.33912244     0.14700
C378        C  0.48850130  0.60111553  0.17313803    -0.14900
C379        C  0.49149682  0.64348609  0.18323245    -0.30100
H380        H  0.49166260  0.59419582  0.14553593     0.14100
H381        H  0.98276498  0.64847452  0.20741381     0.14700
C382        C  0.51248103  0.80634072  0.16852449    -0.14900
C383        C  0.47213966  0.80220901  0.18313043    -0.30100
H384        H  0.04176575  0.84415278  0.16550172     0.14100
H385        H  0.43768890  0.76871752  0.17883588     0.14700
C386        C  0.52531229  0.72625417  0.45483849    -0.17000
C387        C  0.53014951  0.73222705  0.48593031     0.07100
C388        C  0.52721566  0.71907051  0.03506934     0.09000
C389        C  0.52320768  0.71860267  0.06650079    -0.17800
C390        C  0.29011216  0.99747713  0.36333545    -0.14900
C391        C  0.28476766  0.96291380  0.34031799    -0.30100
H392        H  0.32576561  0.02826908  0.36923210     0.14100
H393        H  0.29569041  0.51399300  0.33119847     0.14700
C394        C  0.09460855  0.98884234  0.35351985    -0.14900
C395        C  0.13385129  0.98516125  0.34566375    -0.30100
H396        H  0.08715549  0.99427873  0.38047541     0.14100
H397        H  0.14506619  0.47810036  0.31799115     0.14700
C398        C  0.30294836  0.98750444  0.19132244    -0.14900
C399        C  0.27829762  0.95408238  0.16644700    -0.30100
H400        H  0.29689836  0.01828054  0.19483338     0.14100
H401        H  0.28553495  0.92458496  0.16069037     0.14700
C402        C  0.09615642  0.97089182  0.17071882    -0.14900
C403        C  0.13500778  0.96843420  0.18074036    -0.30100
H404        H  0.08711797  0.96836562  0.14320248     0.14100
H405        H  0.14341965  0.97081341  0.20839830     0.14700
C406        C  0.18508924  0.94613514  0.06305845    -0.17000
C407        C  0.18223903  0.94466453  0.03151528     0.07100
C408        C  0.20139824  0.00080658  0.49664028     0.09000
C409        C  0.19939240  0.00103410  0.46507103    -0.17800
C410        C  0.31258561  0.80159448  0.34251367    -0.14900
C411        C  0.34848881  0.84554295  0.35238149    -0.30100
H412        H  0.30627761  0.79331899  0.31467119     0.14100
H413        H  0.35594417  0.85405268  0.38008455     0.14700
C414        C  0.17687094  0.63874905  0.35685700    -0.13300
C415        C  0.14309251  0.64516240  0.34130802    -0.30100
H416        H  0.17989196  0.60639762  0.35215721     0.14100
H417        H  0.14143893  0.67821841  0.34665020     0.14700
C418        C  0.31863809  0.81553323  0.17973010    -0.14900
C419        C  0.35778532  0.85825994  0.17036410    -0.30100
H420        H  0.30795389  0.80923817  0.20726709     0.14100
H421        H  0.36912005  0.86573887  0.14302552     0.14700
C422        C  0.18470744  0.64886035  0.16736817    -0.14900
C423        C  0.15425352  0.65488657  0.18848699    -0.30100
H424        H  0.18105932  0.61298477  0.16355251     0.14100
H425        H  0.15711030  0.69075821  0.18967995     0.14700
C426        C  0.27959667  0.73602412  0.06412067    -0.17000
C427        C  0.28190661  0.73588380  0.03260823     0.07100
C428        C  0.24693667  0.73389422  0.49170004     0.09000
C429        C  0.25205463  0.73446316  0.46041403    -0.17800
C430        C  0.24479994  0.73727045  0.59672492     0.81800
N431        N  0.28543310  0.77734274  0.60828468    -0.76500
C432        C  0.29597237  0.78302235  0.64264438     0.84200
N433        N  0.26540557  0.74785155  0.66560944    -0.76500
C434        C  0.22408718  0.70784037  0.65450991     0.84300
N435        N  0.21374069  0.70244240  0.61972888    -0.78200
C436        C  0.27084400  0.73388381  0.92710391     0.81800
N437        N  0.30102476  0.77415717  0.90776604    -0.76500
C438        C  0.29328799  0.77487250  0.87295878     0.84200
N439        N  0.25529542  0.73553393  0.85791209    -0.76500
C440        C  0.22528522  0.69511712  0.87690111     0.84300
N441        N  0.23327058  0.69417617  0.91161096    -0.78200
C442        C  0.21472874  0.99136461  0.60163509     0.81800
N443        N  0.17684799  0.98390878  0.62248190    -0.76500
C444        C  0.17836364  0.97773701  0.65746527     0.84200
N445        N  0.21778971  0.97860876  0.67138848    -0.76500
C446        C  0.25611397  0.98649911  0.65091755     0.84300
N447        N  0.25475498  0.99344054  0.61591626    -0.78200
C448        C  0.19114254  0.94617920  0.92548506     0.81800
N449        N  0.22879200  0.94230441  0.91215849    -0.76500
C450        C  0.23746395  0.94637365  0.87720616     0.84200
N451        N  0.20827025  0.95374126  0.85566597    -0.76500
C452        C  0.17025523  0.95691954  0.86848698     0.84300
N453        N  0.16175922  0.95343562  0.90366001    -0.78200
C454        C  0.51974080  0.73314812  0.59045800     0.81800
N455        N  0.52023340  0.76836972  0.61141511    -0.76500
C456        C  0.50897747  0.75916248  0.64597661     0.84200
N457        N  0.49786566  0.71460224  0.65931378    -0.76500
C458        C  0.49825813  0.67959982  0.63825987     0.84300
N459        N  0.50921087  0.68928632  0.60395983    -0.78200
C460        C  0.53048321  0.72980837  0.92942096     0.81800
N461        N  0.52034571  0.69086803  0.90834628    -0.76500
C462        C  0.51664414  0.69463116  0.87324488     0.84200
N463        N  0.52261195  0.73678187  0.85968855    -0.76500
C464        C  0.53267862  0.77556490  0.88039218     0.84300
N465        N  0.53639351  0.77216226  0.91545835    -0.78200
O466        O  0.36877962  0.52730205  0.73412673    -0.86600
C467        C  0.12476990  0.62271782  0.81095359     1.13400
O468        O  0.42997217  0.97239299  0.76393830    -1.34400
O469        O  0.08041200  0.62267986  0.72124893    -0.88100
O470        O  0.32798447  0.92492970  0.73105159    -0.88800
O471        O  0.42541918  0.91153916  0.69258645    -0.77600
O472        O  0.47741513  0.58192233  0.73533695    -0.99700
C473        C  0.06599150  0.97537388  0.69767372     1.23500
O474        O  0.48363741  0.92363299  0.76553131    -1.34600
Mn475      Mn  0.48362421  0.97788167  0.80071420     1.82100
O476        O  0.02867218  0.97672027  0.68916508    -0.76700
O477        O  0.12505262  0.58612276  0.72387950    -0.86100
C478        C  0.06963546  0.97257702  0.82631908     1.14500
C479        C  0.11460773  0.61645863  0.71010719     1.09300
O480        O  0.43705787  0.93101647  0.84069385    -0.77600
O481        O  0.02787008  0.52861986  0.76528698    -1.31300
O482        O  0.39166193  0.88170548  0.80256882    -0.96800
C483        C  0.48288795  0.82727842  0.71991733     1.08000
Mn484      Mn  0.09593070  0.53127517  0.76327462     1.48600
O485        O  0.44371645  0.81920883  0.73487629    -0.86000
Mn486      Mn  0.36245906  0.90724222  0.76997463     1.49600
O487        O  0.37672171  0.52162842  0.81133873    -0.89900
C488        C  0.47621528  0.57908577  0.70385773     1.21200
C489        C  0.34208830  0.97708373  0.81561777     1.13200
Mn490      Mn  0.47844066  0.96882190  0.72499425     1.81000
O491        O  0.07769331  0.97333982  0.79486353    -0.95000
Mn492      Mn  0.42593329  0.55003943  0.76980251     1.49300
C493        C  0.33378133  0.96328647  0.71578764     1.09800
Mn494      Mn  0.04384478  0.91888961  0.76134397     1.49900
C495        C  0.49086950  0.84080477  0.82087302     1.12700
O496        O  0.38564539  0.87210490  0.73805056    -1.00800
O497        O  0.12772269  0.58503805  0.80283288    -0.90500
C498        C  0.39000519  0.87425200  0.70605164     1.23900
O499        O  0.07393462  0.97453677  0.72876546    -1.01200
O500        O  0.09355271  0.63171270  0.79834432    -0.88600
O501        O  0.01994013  0.86546487  0.80062639    -0.88200
O502        O  0.33606196  0.93498940  0.80847434    -0.88300
Mn503      Mn  0.03481521  0.59902007  0.76526763     1.47900
O504        O  0.03300133  0.97417128  0.83612274    -0.76700
C505        C  0.39981520  0.89146596  0.83336272     1.17000
O506        O  0.47993277  0.54466227  0.69022303    -0.75500
O507        O  0.48327404  0.53233353  0.83748852    -0.75100
Mn508      Mn  0.42132241  0.85357868  0.77180749     1.51100
O509        O  0.01665201  0.86450685  0.72152043    -0.87400
O510        O  0.48366854  0.58136608  0.79989927    -0.95000
O511        O  0.44920035  0.83201732  0.81192826    -0.90000
C512        C  0.48671657  0.57255186  0.83046987     1.14800
C513        C  0.50509846  0.65418984  0.84882957    -0.14900
C514        C  0.49574142  0.60922321  0.85791011    -0.30100
H515        H  0.50454819  0.66254524  0.82122612     0.14100
H516        H  0.99979853  0.60098850  0.88745489     0.14700
C517        C  0.49239691  0.81016357  0.84898522    -0.14900
C518        C  0.53323153  0.81790028  0.86430230    -0.30100
H519        H  0.45869844  0.77641837  0.85473159     0.14100
H520        H  0.04083303  0.84662067  0.86627526     0.14700
C521        C  0.47434989  0.61861938  0.68492916    -0.14900
C522        C  0.49045930  0.63245078  0.65233940    -0.30100
H523        H  0.46448861  0.64137564  0.70050147     0.14100
H524        H  0.99098674  0.59723215  0.63639150     0.14700
C525        C  0.51167071  0.79860558  0.66897881    -0.14900
C526        C  0.47979334  0.78923220  0.69524276    -0.30100
H527        H  0.02401226  0.78639722  0.69811945     0.14100
H528        H  0.44975306  0.75209819  0.69865190     0.14700
C529        C  0.53158843  0.72513737  0.96671412    -0.17000
C530        C  0.53043206  0.72173313  0.99816478     0.07100
C531        C  0.53140600  0.73908104  0.52236334     0.09000
C532        C  0.52839547  0.74055377  0.55365800    -0.17800
C533        C  0.27904944  0.94471547  0.86205322    -0.14900
C534        C  0.30927123  0.98120125  0.84075933    -0.30100
H535        H  0.28209915  0.91220462  0.86559160     0.14100
H536        H  0.31834673  0.51102472  0.86140140     0.14700
C537        C  0.10103592  0.96824702  0.85259978    -0.14900
C538        C  0.13925608  0.96370396  0.84328562    -0.30100
H539        H  0.09175521  0.96758476  0.88004759     0.14100
H540        H  0.13499629  0.45381359  0.81539761     0.14700
C541        C  0.29495056  0.95701540  0.69164130    -0.14900
C542        C  0.29967079  0.99008588  0.66748092    -0.30100
H543        H  0.25950099  0.92458744  0.69552302     0.14100
H544        H  0.33512224  0.02117949  0.66126126     0.14700
C545        C  0.10058321  0.97592167  0.67123416    -0.14900
C546        C  0.13926390  0.97252594  0.68124325    -0.30100
H547        H  0.09519519  0.98061723  0.64388032     0.14100
H548        H  0.14391692  0.96775975  0.70875753     0.14700
C549        C  0.21171356  0.99637840  0.56440580    -0.17000
C550        C  0.20692268  0.99906050  0.53328994     0.07100
C551        C  0.18167241  0.94411796  0.99443505     0.09000
C552        C  0.18399357  0.94448522  0.96284495    -0.17800
C553        C  0.32598050  0.81610873  0.85013172    -0.14900
C554        C  0.36722224  0.85633153  0.86022880    -0.30100
H555        H  0.31620270  0.81159649  0.82270132     0.14100
H556        H  0.37774102  0.86218005  0.88747034     0.14700
C557        C  0.18473636  0.65279077  0.85930645    -0.13300
C558        C  0.16101473  0.66086176  0.83383145    -0.30100
H559        H  0.17484231  0.61572544  0.86676496     0.14100
H560        H  0.16894435  0.69814938  0.82904940     0.14700
C561        C  0.34013419  0.82766467  0.65469078    -0.14900
C562        C  0.35261702  0.83087418  0.68806714    -0.30100
H563        H  0.36069364  0.85776896  0.63697456     0.14100
H564        H  0.33097810  0.80011529  0.70511750     0.14700
C565        C  0.19272950  0.67019447  0.68058305    -0.14900
C566        C  0.14402227  0.64721807  0.68021706    -0.30100
H567        H  0.21042748  0.66529478  0.70308446     0.14100
H568        H  0.12602809  0.65615705  0.65998615     0.14700
C569        C  0.23776489  0.73116657  0.55973665    -0.17000
C570        C  0.23995942  0.73134897  0.52827985     0.07100
C571        C  0.28079555  0.73489368  0.99565670     0.09000
C572        C  0.27736523  0.73410247  0.96423947    -0.17800
C573        C  0.75380467  0.23452775  0.10239311     0.81800
N574        N  0.78529422  0.27357034  0.12216630    -0.76500
C575        C  0.77721159  0.27389557  0.15718128     0.84200
N576        N  0.73771535  0.23558849  0.17191113    -0.76500
C577        C  0.70646341  0.19643948  0.15258414     0.84300
N578        N  0.71476791  0.19566655  0.11773176    -0.78200
C579        C  0.75815112  0.23480472  0.42220892     0.81800
N580        N  0.79097042  0.27267840  0.40197590    -0.76500
C581        C  0.78983532  0.26734509  0.36655400     0.84200
N582        N  0.75646006  0.22455353  0.35196368    -0.76500
C583        C  0.72369839  0.18731750  0.37203045     0.84300
N584        N  0.72408909  0.19251823  0.40716493    -0.78200
C585        C  0.68462172  0.44146558  0.10031428     0.81800
N586        N  0.65508372  0.44918422  0.12209464    -0.76500
C587        C  0.66324518  0.45368241  0.15710846     0.84200
N588        N  0.70117703  0.45094457  0.17001079    -0.76500
C589        C  0.73063895  0.44298696  0.14858400     0.84300
N590        N  0.72229186  0.43800174  0.11360106    -0.78200
C591        C  0.69104157  0.45265823  0.42578078     0.81800
N592        N  0.72790069  0.44892518  0.41057846    -0.76500
C593        C  0.73241682  0.44973961  0.37521262     0.84200
N594        N  0.69981935  0.45372165  0.35521395    -0.76500
C595        C  0.66246159  0.45658657  0.36976523     0.84300
N596        N  0.65809521  0.45641791  0.40533901    -0.78200
C597        C  0.01625895  0.22455699  0.09659775     0.81800
N598        N  0.01666610  0.26359953  0.11234255    -0.76500
C599        C  0.00314267  0.26054433  0.14641078     0.84200
N600        N  0.99009373  0.21888846  0.16452465    -0.76500
C601        C  0.99044762  0.18028009  0.14921024     0.84300
N602        N  0.00338795  0.18294639  0.11502448    -0.78200
C603        C  0.97297650  0.21374579  0.42832816     0.81800
N604        N  0.97358525  0.17331987  0.41641315    -0.76500
C605        C  0.98204628  0.16952564  0.38205303     0.84200
N606        N  0.99106121  0.20694351  0.36004813    -0.76500
C607        C  0.99016726  0.24708118  0.37168378     0.84300
N608        N  0.98068293  0.25039352  0.40596203    -0.78200
O609        O  0.86966593  0.01578383  0.20966265    -0.86600
C610        C  0.60919020  0.11140749  0.32280115     1.13400
O611        O  0.92468683  0.47625424  0.26065653    -1.34400
O612        O  0.57975005  0.13180376  0.23839719    -0.88100
O613        O  0.82776199  0.43620904  0.22077558    -0.88800
O614        O  0.92569789  0.42382148  0.18811720    -0.77600
O615        O  0.97644272  0.07193078  0.21864206    -0.99700
C616        C  0.55999895  0.46606002  0.19909059     1.23500
O617        O  0.97357132  0.42353470  0.26185860    -1.34600
Mn618      Mn  0.97408979  0.47571874  0.29888803     1.82100
O619        O  0.52401966  0.46906292  0.19007897    -0.76700
O620        O  0.61591115  0.08757531  0.22780281    -0.86100
C621        C  0.55758035  0.46601050  0.32788490     1.14500
C622        C  0.61042737  0.12429034  0.22217655     1.09300
O623        O  0.92338615  0.42717276  0.33493799    -0.77600
O624        O  0.52086144  0.02769136  0.26860305    -1.31300
O625        O  0.87762439  0.38103340  0.29486165    -0.96800
C626        C  0.97103149  0.32966854  0.21327201     1.08000
Mn627      Mn  0.58921975  0.03155717  0.26549976     1.48600
O628        O  0.93112816  0.32274123  0.22596259    -0.86000
Mn629      Mn  0.85518323  0.41162872  0.26089626     1.49600
O630        O  0.86458580  0.02368908  0.28712694    -0.89900
C631        C  0.97821082  0.06310889  0.18789029     1.21200
C632        C  0.83378716  0.47957564  0.30922691     1.13200
Mn633      Mn  0.97545418  0.47451087  0.22355123     1.81000
O634        O  0.56638789  0.46592418  0.29663486    -0.95000
Mn635      Mn  0.92016209  0.04418512  0.24993804     1.49300
C636        C  0.83713333  0.47758323  0.20844760     1.09800
Mn637      Mn  0.53416213  0.41083058  0.26346074     1.49900
C638        C  0.97027377  0.33410324  0.31498985     1.12700
O639        O  0.87830195  0.37864707  0.22853166    -1.00800
O640        O  0.61859719  0.08232615  0.30588947    -0.90500
C641        C  0.88736640  0.38615561  0.19723363     1.23900
O642        O  0.56763309  0.46572706  0.23031303    -1.01200
O643        O  0.57434755  0.11835173  0.31559661    -0.88600
O644        O  0.50649039  0.35732751  0.30304967    -0.88200
O645        O  0.82638337  0.43767358  0.29958022    -0.88300
Mn646      Mn  0.52412778  0.09597878  0.27533265     1.47900
O647        O  0.52050361  0.46770566  0.33649965    -0.76700
C648        C  0.88574856  0.38910247  0.32608268     1.17000
O649        O  0.97750801  0.02412803  0.18051915    -0.75500
O650        O  0.97338697  0.03935872  0.32826724    -0.75100
Mn651      Mn  0.90755130  0.35510328  0.26303011     1.51100
O652        O  0.50899377  0.35592371  0.22429391    -0.87400
O653        O  0.97298558  0.07700807  0.28304949    -0.95000
O654        O  0.93029654  0.32809601  0.30388679    -0.90000
C655        C  0.97235830  0.07488857  0.31461861     1.14800
C656        C  0.97927233  0.12431083  0.36802854    -0.14900
C657        C  0.97261917  0.11547288  0.33366002    -0.30100
H658        H  0.98200660  0.09869145  0.38537323     0.14100
H659        H  0.47379912  0.08459685  0.39172522     0.14700
C660        C  0.96814323  0.30343644  0.34462471    -0.14900
C661        C  0.99832214  0.28558538  0.34648602    -0.30100
H662        H  0.93771232  0.29044080  0.36286996     0.14100
H663        H  0.52312087  0.33172302  0.36782479     0.14700
C664        C  0.98269285  0.09880702  0.16117805    -0.14900
C665        C  0.97909318  0.13782359  0.17121705    -0.30100
H666        H  0.99136386  0.09468307  0.13422753     0.14100
H667        H  0.48703439  0.09846154  0.14059738     0.14700
C668        C  0.00351426  0.30204646  0.16454299    -0.14900
C669        C  0.96845164  0.29319605  0.18799357    -0.30100
H670        H  0.53927593  0.32412354  0.17098090     0.14100
H671        H  0.93718705  0.25644223  0.19003229     0.14700
C672        C  0.96569239  0.21818137  0.46482059    -0.17000
C673        C  0.96206327  0.22014254  0.49602821     0.07100
C674        C  0.03227413  0.22677960  0.02880584     0.09000
C675        C  0.02692006  0.22629943  0.06001270    -0.17800
C676        C  0.77309937  0.44822577  0.35782451    -0.14900
C677        C  0.79984918  0.48276508  0.33404808    -0.30100
H678        H  0.77923708  0.41788231  0.36288597     0.14100
H679        H  0.79108224  0.01820409  0.32131076     0.14700
C680        C  0.58940599  0.46331960  0.35484307    -0.14900
C681        C  0.62845645  0.46014286  0.34552387    -0.30100
H682        H  0.58046512  0.46352136  0.38237752     0.14100
H683        H  0.64327757  0.97936199  0.31781777     0.14700
C684        C  0.80464581  0.47981382  0.18226631    -0.14900
C685        C  0.77167486  0.44096144  0.16408526    -0.30100
H686        H  0.80471922  0.51426885  0.18031036     0.14100
H687        H  0.77135929  0.40635629  0.16434446     0.14700
C688        C  0.59197134  0.46233588  0.17253212    -0.14900
C689        C  0.63148995  0.46051112  0.18198098    -0.30100
H690        H  0.58245524  0.46012037  0.14524402     0.14100
H691        H  0.64061296  0.46297612  0.20939793     0.14700
C692        C  0.67712190  0.43903531  0.06308670    -0.17000
C693        C  0.67227583  0.43905584  0.03177243     0.07100
C694        C  0.69052701  0.45730493  0.49526692     0.09000
C695        C  0.68870862  0.45468726  0.46358212    -0.17800
C696        C  0.82238356  0.30689373  0.34268738    -0.14900
C697        C  0.85425782  0.35281405  0.35250539    -0.30100
H698        H  0.81930427  0.29732601  0.31506419     0.14100
H699        H  0.85876143  0.36306907  0.37998520     0.14700
C700        C  0.68521379  0.14434273  0.35477659    -0.13300
C701        C  0.64189470  0.14088733  0.35099088    -0.30100
H702        H  0.69571360  0.12286886  0.33841480     0.14100
H703        H  0.63352672  0.16558219  0.36545848     0.14700
C704        C  0.81094372  0.31344012  0.18058791    -0.14900
C705        C  0.85410315  0.35121412  0.17088886    -0.30100
H706        H  0.80010816  0.30974091  0.20811240     0.14100
H707        H  0.86561655  0.35591587  0.14351283     0.14700
C708        C  0.66542353  0.15452606  0.17036747    -0.14900
C709        C  0.64351828  0.16265134  0.19767550    -0.30100
H710        H  0.65499473  0.11738067  0.16241387     0.14100
H711        H  0.65198424  0.19996364  0.20343097     0.14700
C712        C  0.76074611  0.23480918  0.06503754    -0.17000
C713        C  0.76400451  0.23467663  0.03349552     0.07100
C714        C  0.75456678  0.23711660  0.49090083     0.09000
C715        C  0.75826725  0.23877474  0.45952087    -0.17800
C716        C  0.75353417  0.23976196  0.59598813     0.81800
N717        N  0.79186521  0.28173051  0.60783804    -0.76500
C718        C  0.79954470  0.28966780  0.64245943     0.84200
N719        N  0.76894486  0.25448121  0.66546561    -0.76500
C720        C  0.73022442  0.21213878  0.65391846     0.84300
N721        N  0.72240909  0.20487600  0.61888314    -0.78200
C722        C  0.75905814  0.23396584  0.92729834     0.81800
N723        N  0.79005558  0.27434985  0.90825118    -0.76500
C724        C  0.78366954  0.27510762  0.87317637     0.84200
N725        N  0.74627967  0.23588998  0.85763407    -0.76500
C726        C  0.71554636  0.19542089  0.87619609     0.84300
N727        N  0.72216319  0.19426725  0.91115908    -0.78200
C728        C  0.70400241  0.46876958  0.60163802     0.81800
N729        N  0.67349010  0.47864458  0.62070540    -0.76500
C730        C  0.67837514  0.48396615  0.65602067     0.84200
N731        N  0.71378323  0.47958827  0.67189583    -0.76500
C732        C  0.74415909  0.46933928  0.65344861     0.84300
N733        N  0.73899310  0.46352898  0.61811064    -0.78200
C734        C  0.68151656  0.44888100  0.92629264     0.81800
N735        N  0.71858671  0.44341206  0.91395151    -0.76500
C736        C  0.73028484  0.45001806  0.87954021     0.84200
N737        N  0.70498562  0.46194710  0.85739848    -0.76500
C738        C  0.66751361  0.46691529  0.86915000     0.84300
N739        N  0.65570247  0.46051446  0.90391516    -0.78200
C740        C  0.96813773  0.20998569  0.60021580     0.81800
N741        N  0.97451578  0.24477521  0.62409810    -0.76500
C742        C  0.98287164  0.23930065  0.65808223     0.84200
N743        N  0.98493609  0.19889562  0.66772544    -0.76500
C744        C  0.97769907  0.16346549  0.64385689     0.84300
N745        N  0.96933694  0.16936790  0.61014406    -0.78200
C746        C  0.02214563  0.22520622  0.92400881     0.81800
N747        N  0.00937006  0.18386244  0.90510828    -0.76500
C748        C  0.99688237  0.18173216  0.87101954     0.84200
N749        N  0.99674252  0.22064581  0.85632810    -0.76500
C750        C  0.00976285  0.26202750  0.87501474     0.84300
N751        N  0.02279817  0.26445358  0.90889558    -0.78200
O752        O  0.87621219  0.02205721  0.73039710    -0.86600
C753        C  0.62112374  0.12300827  0.80621944     1.13400
O754        O  0.92644197  0.48026329  0.76993973    -1.34400
O755        O  0.58242542  0.11795348  0.71380941    -0.88100
O756        O  0.82726146  0.44269352  0.73386511    -0.88800
O757        O  0.91920652  0.42620594  0.69349985    -0.77600
O758        O  0.98500486  0.07480964  0.73637814    -0.99700
C759        C  0.57120731  0.49363308  0.69452906     1.23500
O760        O  0.97504006  0.42673954  0.76577632    -1.34600
Mn761      Mn  0.97862958  0.47857816  0.80470658     1.82100
O762        O  0.53369914  0.49451211  0.68593174    -0.76700
O763        O  0.63011478  0.08529313  0.72018721    -0.86100
C764        C  0.57000778  0.48449348  0.82342844     1.14500
C765        C  0.61893135  0.11412141  0.70498128     1.09300
O766        O  0.93006071  0.42889270  0.84211666    -0.77600
O767        O  0.53101819  0.02519209  0.75974966    -1.31300
O768        O  0.88157000  0.38404099  0.80286931    -0.96800
C769        C  0.96928381  0.33441552  0.71291611     1.08000
Mn770      Mn  0.60116665  0.03206286  0.76044092     1.48600
O771        O  0.92996842  0.32912460  0.72569966    -0.86000
Mn772      Mn  0.85663080  0.41733495  0.77236565     1.49600
O773        O  0.87530763  0.02063715  0.80765185    -0.89900
C774        C  0.98558605  0.07149721  0.70441809     1.21200
C775        C  0.84181441  0.48376798  0.82672500     1.13200
Mn776      Mn  0.97360430  0.47814501  0.72846240     1.81000
O777        O  0.58024225  0.48761572  0.79215667    -0.95000
Mn778      Mn  0.92852014  0.04358342  0.76932521     1.49300
C779        C  0.83422480  0.48492101  0.72594049     1.09800
Mn780      Mn  0.54910311  0.43497644  0.75686430     1.49900
C781        C  0.97444716  0.33257254  0.81340853     1.12700
O782        O  0.87846411  0.38542761  0.73776876    -1.00800
O783        O  0.62789602  0.08741988  0.79885253    -0.90500
C784        C  0.88165597  0.39011673  0.70592409     1.23900
O785        O  0.57860226  0.49214864  0.72569002    -1.01200
O786        O  0.58927344  0.12967808  0.79159166    -0.88600
O787        O  0.52518108  0.37855986  0.79407296    -0.88200
O788        O  0.83062746  0.44273518  0.81281259    -0.88300
Mn789      Mn  0.53293217  0.09340640  0.75581818     1.47900
O790        O  0.53167990  0.48316658  0.83234071    -0.76700
C791        C  0.89129874  0.39129008  0.83388055     1.17000
O792        O  0.98096525  0.03241935  0.69167285    -0.75500
O793        O  0.98518312  0.02582810  0.84072009    -0.75100
Mn794      Mn  0.90978381  0.35829582  0.76779041     1.51100
O795        O  0.52556194  0.38392278  0.71575070    -0.87400
O796        O  0.98383993  0.07172384  0.80151508    -0.95000
O797        O  0.93396664  0.32613594  0.80329594    -0.90000
C798        C  0.98446276  0.06371209  0.83251263     1.14800
C799        C  0.98570808  0.13934428  0.84863574    -0.14900
C800        C  0.98833533  0.09998992  0.85877366    -0.30100
H801        H  0.97752120  0.14231369  0.82143831     0.14100
H802        H  0.49126882  0.10027154  0.87579881     0.14700
C803        C  0.97303794  0.29567060  0.83731986    -0.14900
C804        C  0.00990405  0.30377500  0.85805160    -0.30100
H805        H  0.94106165  0.25924201  0.83644647     0.14100
H806        H  0.54946371  0.34925739  0.85307633     0.14700
C807        C  0.99326090  0.11556393  0.68593658    -0.14900
C808        C  0.97695263  0.11779815  0.65450405    -0.30100
H809        H  0.00868616  0.14834802  0.70213167     0.14100
H810        H  0.45830246  0.12564583  0.70878873     0.14700
C811        C  0.99018955  0.27688357  0.68457448    -0.14900
C812        C  0.96566534  0.30136381  0.68400667    -0.30100
H813        H  0.42213006  0.25639293  0.69469210     0.14100
H814        H  0.93854962  0.29282002  0.66402464     0.14700
C815        C  0.03106624  0.22613841  0.96066860    -0.17000
C816        C  0.03397076  0.22664223  0.99201543     0.07100
C817        C  0.96091407  0.21977205  0.53279459     0.09000
C818        C  0.96266203  0.21684530  0.56400786    -0.17800
C819        C  0.77073386  0.44561813  0.86571594    -0.14900
C820        C  0.80972532  0.48587104  0.85346989    -0.30100
H821        H  0.76494233  0.40919437  0.86015446     0.14100
H822        H  0.80691856  0.01759765  0.84439027     0.14700
C823        C  0.59992404  0.47947770  0.85071026    -0.14900
C824        C  0.64002665  0.47755521  0.84303577    -0.30100
H825        H  0.58722482  0.47496265  0.87760062     0.14100
H826        H  0.64805770  0.96777133  0.81724280     0.14700
C827        C  0.80074245  0.48995180  0.70207259    -0.14900
C828        C  0.78159943  0.46385037  0.67259081    -0.30100
H829        H  0.79187416  0.51794734  0.70925577     0.14100
H830        H  0.79298831  0.43872905  0.66293582     0.14700
C831        C  0.60492647  0.49204530  0.66811555    -0.14900
C832        C  0.64521722  0.49219171  0.67861244    -0.30100
H833        H  0.59561022  0.48833002  0.64059353     0.14100
H834        H  0.65358829  0.49604158  0.70634959     0.14700
C835        C  0.69922910  0.46413620  0.56394100    -0.17000
C836        C  0.69493506  0.46084927  0.53237760     0.07100
C837        C  0.66963659  0.44103550  0.99488552     0.09000
C838        C  0.67167837  0.44407310  0.96334705    -0.17800
C839        C  0.81665992  0.31642419  0.85048345    -0.14900
C840        C  0.85870446  0.35553102  0.86046124    -0.30100
H841        H  0.80643364  0.31279836  0.82319072     0.14100
H842        H  0.86990156  0.36014907  0.88752576     0.14700
C843        C  0.67622782  0.15314127  0.85758661    -0.13300
C844        C  0.65376564  0.16107569  0.83096823    -0.30100
H845        H  0.66712585  0.11611844  0.86464725     0.14100
H846        H  0.66076243  0.19810815  0.82632019     0.14700
C847        C  0.84133234  0.33614554  0.65470993    -0.14900
C848        C  0.84043394  0.35152689  0.68695108    -0.30100
H849        H  0.87270669  0.35678470  0.63778337     0.14100
H850        H  0.80806775  0.32999456  0.70290225     0.14700
C851        C  0.69845643  0.17427642  0.67982522    -0.14900
C852        C  0.65013965  0.14584337  0.67605166    -0.30100
H853        H  0.71465805  0.17302226  0.70432576     0.14100
H854        H  0.63282797  0.15074542  0.65339524     0.14700
C855        C  0.74768886  0.23292494  0.55900057    -0.17000
C856        C  0.74928194  0.23344774  0.52755317     0.07100
C857        C  0.76509029  0.23433865  0.99639927     0.09000
C858        C  0.76369822  0.23408014  0.96479141    -0.17800
C859        C  0.76904871  0.72680618  0.10204098     0.81800
N860        N  0.79796184  0.76610171  0.12250321    -0.76500
C861        C  0.78962121  0.76415943  0.15757686     0.84200
N862        N  0.75215802  0.72329566  0.17172019    -0.76500
C863        C  0.72327874  0.68396206  0.15158959     0.84300
N864        N  0.73184509  0.68557452  0.11663124    -0.78200
C865        C  0.75078406  0.74168973  0.41781968     0.81800
N866        N  0.78609578  0.77987692  0.39907579    -0.76500
C867        C  0.79077952  0.77442873  0.36412592     0.84200
N868        N  0.76070318  0.73107877  0.34850149    -0.76500
C869        C  0.72530740  0.69345180  0.36685223     0.84300
N870        N  0.71994165  0.69884377  0.40153911    -0.78200
C871        C  0.68531522  0.95443452  0.10264297     0.81800
N872        N  0.65325926  0.96006155  0.12319755    -0.76500
C873        C  0.65495720  0.95695664  0.15858579     0.84200
N874        N  0.68817357  0.94775668  0.17301417    -0.76500
C875        C  0.72047202  0.94271814  0.15284930     0.84300
N876        N  0.71931979  0.94633124  0.11752252    -0.78200
C877        C  0.69164079  0.95393487  0.42362752     0.81800
N878        N  0.72959225  0.95309223  0.40751254    -0.76500
C879        C  0.73648229  0.96026690  0.37240526     0.84200
N880        N  0.70483281  0.96734450  0.35351589    -0.76500
C881        C  0.66623377  0.96712044  0.36878078     0.84300
N882        N  0.65961004  0.96064255  0.40415621    -0.78200
C883        C  0.02217532  0.72695748  0.10280915     0.81800
N884        N  0.02354978  0.76674729  0.11811886    -0.76500
C885        C  0.01235709  0.76549656  0.15257622     0.84200
N886        N  0.00062534  0.72488241  0.17158438    -0.76500
C887        C  0.99991674  0.68543499  0.15685079     0.84300
N888        N  0.01042147  0.68621375  0.12217562    -0.78200
C889        C  0.98435818  0.71416573  0.42060729     0.81800
N890        N  0.98128611  0.67682392  0.40045822    -0.76500
C891        C  0.98934849  0.68344302  0.36528220     0.84200
N892        N  0.00069630  0.72706004  0.35089147    -0.76500
C893        C  0.00365198  0.76396628  0.37080417     0.84300
N894        N  0.99496957  0.75744716  0.40565046    -0.78200
O895        O  0.87130778  0.51837432  0.21943703    -0.86600
C896        C  0.61377528  0.60676546  0.31648016     1.13400
O897        O  0.92422520  0.97987636  0.25589500    -1.34400
O898        O  0.58804764  0.62099509  0.22887416    -0.88100
O899        O  0.82574656  0.93437416  0.21707398    -0.88800
O900        O  0.92686108  0.92334835  0.18644043    -0.77600
O901        O  0.97858590  0.57254076  0.22720764    -0.99700
C902        C  0.55805140  0.98068454  0.19960146     1.23500
O903        O  0.97542654  0.93018334  0.26137230    -1.34600
Mn904      Mn  0.97433876  0.98466677  0.29586763     1.82100
O905        O  0.52291112  0.98570645  0.19132901    -0.76700
O906        O  0.62333517  0.57503878  0.22399832    -0.86100
C907        C  0.55738547  0.97163456  0.32850748     1.14500
C908        C  0.61921492  0.61179836  0.21549873     1.09300
O909        O  0.92361423  0.93732042  0.33318247    -0.77600
O910        O  0.52523723  0.52046811  0.26354867    -1.31300
O911        O  0.88038705  0.88780337  0.29362818    -0.96800
C912        C  0.97644579  0.83505678  0.21638580     1.08000
Mn913      Mn  0.59248371  0.52123145  0.26336164     1.48600
O914        O  0.93586035  0.82760901  0.22807651    -0.86000
Mn915      Mn  0.85573117  0.91436120  0.25829954     1.49600
O916        O  0.86726273  0.51969173  0.29665171    -0.89900
C917        C  0.98051350  0.56484010  0.19602837     1.21200
C918        C  0.83294188  0.98473938  0.30234030     1.13200
Mn919      Mn  0.97587527  0.97712313  0.22030708     1.81000
O920        O  0.56664042  0.97462268  0.29707548    -0.95000
Mn921      Mn  0.92247275  0.54251061  0.25925599     1.49300
C922        C  0.83498072  0.97373849  0.20132083     1.09800
Mn923      Mn  0.53549600  0.92209359  0.26181786     1.49900
C924        C  0.97493765  0.84491097  0.31737644     1.12700
O925        O  0.87972997  0.88010149  0.22765575    -1.00800
O926        O  0.62251223  0.57512045  0.30258635    -0.90500
C927        C  0.88923636  0.88557627  0.19633144     1.23900
O928        O  0.56546926  0.97880471  0.23066514    -1.01200
O929        O  0.58055883  0.61462829  0.30627403    -0.88600
O930        O  0.50978705  0.86582409  0.29875970    -0.88200
O931        O  0.82712958  0.94250255  0.29567875    -0.88300
Mn932      Mn  0.53158500  0.59088193  0.26526382     1.47900
O933        O  0.51857027  0.96922870  0.33797895    -0.76700
C934        C  0.88747236  0.89736665  0.32474427     1.17000
O935        O  0.97834152  0.52552470  0.18721444    -0.75500
O936        O  0.97403617  0.52653883  0.33415458    -0.75100
Mn937      Mn  0.91075225  0.86062182  0.26355738     1.51100
O938        O  0.51282608  0.87074107  0.22101981    -0.87400
O939        O  0.97493483  0.57249414  0.29355554    -0.95000
O940        O  0.93451485  0.83660481  0.30552439    -0.90000
C941        C  0.97418965  0.56452350  0.32490451     1.14800
C942        C  0.98485383  0.64455496  0.34135702    -0.14900
C943        C  0.97621908  0.60012084  0.35120426    -0.30100
H944        H  0.98974606  0.65378786  0.31355811     0.14100
H945        H  0.48478592  0.59151967  0.38094388     0.14700
C946        C  0.97373745  0.81404259  0.34646185    -0.14900
C947        C  0.01185084  0.80860845  0.35340491    -0.30100
H948        H  0.93881989  0.78940941  0.35855592     0.14100
H949        H  0.53612051  0.83778666  0.35432343     0.14700
C950        C  0.98728167  0.60209399  0.16975580    -0.14900
C951        C  0.98876978  0.64366869  0.17983891    -0.30100
H952        H  0.99283546  0.59620993  0.14233580     0.14100
H953        H  0.48803582  0.64962014  0.21096633     0.14700
C954        C  0.01189266  0.80710373  0.16985108    -0.14900
C955        C  0.97562685  0.79826847  0.19219207    -0.30100
H956        H  0.54738082  0.83960094  0.17161235     0.14100
H957        H  0.94449091  0.76135318  0.19401284     0.14700
C958        C  0.97674890  0.70882917  0.45781892    -0.17000
C959        C  0.97269525  0.70915979  0.48921770     0.07100
C960        C  0.03392832  0.72805857  0.03416229     0.09000
C961        C  0.03013295  0.72711424  0.06565882    -0.17800
C962        C  0.77692076  0.95899736  0.35399780    -0.14900
C963        C  0.79921131  0.98922531  0.32678742    -0.30100
H964        H  0.78709464  0.93226176  0.36178914     0.14100
H965        H  0.79485085  0.51432281  0.33140588     0.14700
C966        C  0.59008680  0.96889621  0.35482021    -0.14900
C967        C  0.63262838  0.97295173  0.34532699    -0.30100
H968        H  0.57853861  0.96245395  0.38212602     0.14100
H969        H  0.63642666  0.45985297  0.31776518     0.14700
C970        C  0.80275856  0.97199510  0.17311448    -0.14900
C971        C  0.75694004  0.93496084  0.17032247    -0.30100
H972        H  0.81416622  0.00527007  0.15803394     0.14100
H973        H  0.74375062  0.90366630  0.18778955     0.14700
C974        C  0.58921309  0.97580774  0.17279836    -0.14900
C975        C  0.62221011  0.96361136  0.18251872    -0.30100
H976        H  0.58427410  0.98080875  0.14546270     0.14100
H977        H  0.62601876  0.95829533  0.21004489     0.14700
C978        C  0.68248887  0.95553216  0.06509592    -0.17000
C979        C  0.68087902  0.95478167  0.03351352     0.07100
C980        C  0.68699491  0.94740793  0.49331921     0.09000
C981        C  0.68696980  0.94946539  0.46153019    -0.17800
C982        C  0.82593182  0.81437632  0.34145801    -0.14900
C983        C  0.85555274  0.86110682  0.35125775    -0.30100
H984        H  0.82626760  0.80434157  0.31425895     0.14100
H985        H  0.85704008  0.87218358  0.37834609     0.14700
C986        C  0.69091868  0.64927333  0.34777113    -0.13300
C987        C  0.64465682  0.63805013  0.34498414    -0.30100
H988        H  0.70560902  0.63310884  0.32977153     0.14100
H989        H  0.63176890  0.65848820  0.36032898     0.14700
C990        C  0.82006565  0.80509661  0.18124316    -0.14900
C991        C  0.85848940  0.84750168  0.17074067    -0.30100
H992        H  0.81073066  0.79938004  0.20886896     0.14100
H993        H  0.86849792  0.85370065  0.14326535     0.14700
C994        C  0.68192978  0.64112968  0.16818994    -0.14900
C995        C  0.65442440  0.64883535  0.19121707    -0.30100
H996        H  0.67550695  0.60440760  0.16292465     0.14100
H997        H  0.65984090  0.68570037  0.19382629     0.14700
C998        C  0.77581215  0.72991629  0.06469635    -0.17000
C999        C  0.77889118  0.73236496  0.03319545     0.07100
C1000       C  0.74163646  0.74534231  0.48643768     0.09000
C1001       C  0.74625254  0.74560918  0.45502925    -0.17800
C1002       C  0.74628844  0.74969831  0.59200879     0.81800
N1003       N  0.78709167  0.78986262  0.60347546    -0.76500
C1004       C  0.79772732  0.79577828  0.63789139     0.84200
N1005       N  0.76752315  0.76034225  0.66088578    -0.76500
C1006       C  0.72629254  0.72007740  0.64992284     0.84300
N1007       N  0.71558625  0.71474725  0.61516966    -0.78200
C1008       C  0.77011056  0.73394374  0.92760695     0.81800
N1009       N  0.80090833  0.77300774  0.90738514    -0.76500
C1010       C  0.79248248  0.77243565  0.87251924     0.84200
N1011       N  0.75345721  0.73348992  0.85845576    -0.76500
C1012       C  0.72282434  0.69459642  0.87827346     0.84300
N1013       N  0.73124285  0.69451138  0.91296543    -0.78200
C1014       C  0.69961496  0.95149992  0.60011467     0.81800
N1015       N  0.66877439  0.95947839  0.62047084    -0.76500
C1016       C  0.67558654  0.96545666  0.65568516     0.84200
N1017       N  0.71334580  0.96387838  0.67013802    -0.76500
C1018       C  0.74399490  0.95543743  0.65046431     0.84300
N1019       N  0.73690566  0.94884339  0.61527906    -0.78200
C1020       C  0.68998104  0.95172108  0.92766068     0.81800
N1021       N  0.72702033  0.94640369  0.91480249    -0.76500
C1022       C  0.73561765  0.94922708  0.87985494     0.84200
N1023       N  0.70718483  0.95711810  0.85791466    -0.76500
C1024       C  0.66988707  0.96186310  0.87030423     0.84300
N1025       N  0.66131227  0.95941722  0.90542165    -0.78200
C1026       C  0.97578269  0.70831047  0.59456407     0.81800
N1027       N  0.98185869  0.74449574  0.61731221    -0.76500
C1028       C  0.98870131  0.74015066  0.65196265     0.84200
N1029       N  0.98898243  0.69951227  0.66328457    -0.76500
C1030       C  0.98199705  0.66301146  0.64063996     0.84300
N1031       N  0.97607589  0.66797509  0.60631316    -0.78200
C1032       C  0.02695896  0.73134807  0.92843245     0.81800
N1033       N  0.01928972  0.69213003  0.90845799    -0.76500
C1034       C  0.01051650  0.69178937  0.87368058     0.84200
N1035       N  0.00876461  0.72993562  0.85946356    -0.76500
C1036       C  0.01609624  0.76886876  0.87902082     0.84300
N1037       N  0.02565332  0.76992527  0.91363871    -0.78200
O1038       O  0.86688261  0.52410755  0.73993036    -0.86600
C1039       C  0.62309357  0.63001319  0.81217244     1.13400
O1040       O  0.93113106  0.97812715  0.76721841    -1.34400
O1041       O  0.58375315  0.63637527  0.72153084    -0.88100
O1042       O  0.83176805  0.94014684  0.73114113    -0.88800
O1043       O  0.92510427  0.92648655  0.69052640    -0.77600
O1044       O  0.97468057  0.57366613  0.73731227    -0.99700
C1045       C  0.56778300  0.97137001  0.69744540     1.23500
O1046       O  0.98025385  0.92517880  0.76339084    -1.34600
Mn1047     Mn  0.98289425  0.97613496  0.80273546     1.82100
O1048       O  0.52791788  0.96716254  0.68904077    -0.76700
O1049       O  0.63052606  0.60196440  0.72261813    -0.86100
C1050       C  0.57209445  0.98009052  0.82644632     1.14500
C1051       C  0.61907180  0.63216619  0.70987161     1.09300
O1052       O  0.93472586  0.92613394  0.83930404    -0.77600
O1053       O  0.53254739  0.53917238  0.76195708    -1.31300
O1054       O  0.88626398  0.88117505  0.80005375    -0.96800
C1055       C  0.97500539  0.83348362  0.70964820     1.08000
Mn1056     Mn  0.60212140  0.54491051  0.76057138     1.48600
O1057       O  0.93570977  0.82802521  0.72253197    -0.86000
Mn1058     Mn  0.86148502  0.91474868  0.76955159     1.49600
O1059       O  0.87745700  0.52426389  0.81690377    -0.89900
C1060       C  0.97071189  0.56683360  0.70555972     1.21200
C1061       C  0.84209066  0.98057668  0.82021764     1.13200
Mn1062     Mn  0.97950151  0.97759306  0.72634186     1.81000
O1063       O  0.58016542  0.97891420  0.79515932    -0.95000
Mn1064     Mn  0.92446947  0.54616919  0.77455373     1.49300
C1065       C  0.84142162  0.98182247  0.71922955     1.09800
Mn1066     Mn  0.54973199  0.92193346  0.76385678     1.49900
C1067       C  0.97925181  0.83178706  0.81213640     1.12700
O1068       O  0.88493520  0.88456654  0.73466265    -1.00800
O1069       O  0.62951386  0.59536737  0.80166340    -0.90500
C1070       C  0.88780142  0.88975466  0.70279988     1.23900
O1071       O  0.57793083  0.97494509  0.72857637    -1.01200
O1072       O  0.59158495  0.63879731  0.79962525    -0.88600
O1073       O  0.52979210  0.87166533  0.80534004    -0.88200
O1074       O  0.83439384  0.93874808  0.81031022    -0.88300
Mn1075     Mn  0.53496345  0.60746532  0.76405821     1.47900
O1076       O  0.53562975  0.98256931  0.83540919    -0.76700
C1077       C  0.89637020  0.88845189  0.83105400     1.17000
O1078       O  0.97175919  0.53018869  0.69343906    -0.75500
O1079       O  0.98439544  0.53039486  0.84179573    -0.75100
Mn1080     Mn  0.91518243  0.85646380  0.76483045     1.51100
O1081       O  0.52402523  0.86478314  0.72647500    -0.87400
O1082       O  0.98473399  0.57762233  0.80257330    -0.95000
O1083       O  0.93882241  0.82414279  0.80084804    -0.90000
C1084       C  0.98852452  0.57055984  0.83345202     1.14800
C1085       C  0.00240516  0.65142752  0.85008821    -0.14900
C1086       C  0.99736092  0.60837390  0.86000696    -0.30100
H1087       H  0.99948045  0.65768724  0.82244992     0.14100
H1088       H  0.49651001  0.60002908  0.88525703     0.14700
C1089       C  0.97818669  0.79709211  0.83796437    -0.14900
C1090       C  0.01297498  0.80874023  0.86177367    -0.30100
H1091       H  0.94875959  0.75930468  0.83587177     0.14100
H1092       H  0.56757970  0.85126942  0.85972644     0.14700
C1093       C  0.96588377  0.60386705  0.68607698    -0.14900
C1094       C  0.98022001  0.61790726  0.65330257    -0.30100
H1095       H  0.95472379  0.62534670  0.70186612     0.14100
H1096       H  0.50094223  0.61048659  0.63645160     0.14700
C1097       C  0.99807126  0.77953357  0.67761660    -0.14900
C1098       C  0.97098720  0.80124617  0.67973830    -0.30100
H1099       H  0.53935262  0.83620997  0.66343348     0.14100
H1100       H  0.94119954  0.79021176  0.66170828     0.14700
C1101       C  0.03313009  0.73063577  0.96563874    -0.17000
C1102       C  0.03509085  0.72954299  0.99713616     0.07100
C1103       C  0.97076381  0.71183088  0.52606925     0.09000
C1104       C  0.97167489  0.71279389  0.55760120    -0.17800
C1105       C  0.77698116  0.94679017  0.86513499    -0.14900
C1106       C  0.80867105  0.98403064  0.84507475    -0.30100
H1107       H  0.77872533  0.91345097  0.86779986     0.14100
H1108       H  0.81428048  0.52176997  0.85953184     0.14700
C1109       C  0.60308256  0.97652272  0.85341251    -0.14900
C1110       C  0.63981476  0.96922588  0.84469002    -0.30100
H1111       H  0.59429170  0.97787629  0.88072391     0.14100
H1112       H  0.65226619  0.48176384  0.81602295     0.14700
C1113       C  0.80828240  0.98533195  0.69407302    -0.14900
C1114       C  0.78396401  0.95305617  0.66832508    -0.30100
H1115       H  0.80238680  0.01617959  0.69788375     0.14100
H1116       H  0.79164658  0.92404669  0.66176153     0.14700
C1117       C  0.60047935  0.96895852  0.67051588    -0.14900
C1118       C  0.64275270  0.97248962  0.67960485    -0.30100
H1119       H  0.58893550  0.96239808  0.64343582     0.14100
H1120       H  0.65333003  0.97872673  0.70692359     0.14700
C1121       C  0.69380891  0.94780633  0.56231074    -0.17000
C1122       C  0.68988999  0.94675379  0.53063069     0.07100
C1123       C  0.68074501  0.95297700  0.99647123     0.09000
C1124       C  0.68308349  0.95173262  0.96494583    -0.17800
C1125       C  0.82440372  0.81219820  0.84858280    -0.14900
C1126       C  0.86521725  0.85277879  0.85792690    -0.30100
H1127       H  0.81391041  0.80677335  0.82126020     0.14100
H1128       H  0.87647165  0.85908026  0.88504740     0.14700
C1129       C  0.68068139  0.65388413  0.86128286    -0.13300
C1130       C  0.65592955  0.66463473  0.83825594    -0.30100
H1131       H  0.67278698  0.61642860  0.86512742     0.14100
H1132       H  0.66258092  0.70201871  0.83682931     0.14700
C1133       C  0.84203844  0.84044504  0.65015148    -0.14900
C1134       C  0.84580443  0.85146089  0.68405730    -0.30100
H1135       H  0.87073662  0.86333140  0.63196291     0.14100
H1136       H  0.81567606  0.82787608  0.70112418     0.14700
C1137       C  0.69571135  0.68171323  0.67601403    -0.14900
C1138       C  0.64779847  0.66446525  0.68007988    -0.30100
H1139       H  0.71429914  0.67200702  0.69527629     0.14100
H1140       H  0.63018050  0.67823182  0.66307707     0.14700
C1141       C  0.73794956  0.74398840  0.55495659    -0.17000
C1142       C  0.73761834  0.74371276  0.52337701     0.07100
C1143       C  0.77944079  0.73442709  0.99623576     0.09000
C1144       C  0.77702149  0.73500883  0.96477411    -0.17800
loop_ 
_geom_bond_atom_site_label_1 
_geom_bond_atom_site_label_2 
_geom_bond_distance 
_geom_bond_site_symmetry_2 
_ccdc_geom_bond_type 
C1            N2   1.364       .  A
C1            N6   1.363       .  A
C1          C140   1.442       .  S
N2            C3   1.362       .  A
C3            N4   1.350       .  A
C3          C132   1.472       .  S
N4            C5   1.352       .  A
C5            N6   1.358       .  A
C5          C136   1.468       .  S
C7            N8   1.365       .  A
C7           N12   1.367       .  A
C7          C143   1.450       .  S
N8            C9   1.363       .  A
C9           N10   1.347       .  A
C9          C124   1.473       .  S
N10          C11   1.351       .  A
C11          N12   1.362       .  A
C11         C128   1.476       .  S
C13          N14   1.364       .  A
C13          N18   1.363       .  A
C13         C120   1.445       .  S
N14          C15   1.363       .  A
C15          N16   1.354       .  A
C15         C117   1.480       .  S
N16          C17   1.355       .  A
C17          N18   1.359       .  A
C17         C113   1.474       .  S
C19          N20   1.363       .  A
C19          N24   1.368       .  A
C19         C123   1.451       .  S
N20          C21   1.359       .  A
C21          N22   1.355       .  A
C21         C104   1.479       .  S
N22          C23   1.354       .  A
C23          N24   1.366       .  A
C23         C109   1.484       .  S
C25          N26   1.361       .  A
C25          N30   1.357       .  A
C25         C103   1.438       .  S
N26          C27   1.361       .  A
C27          N28   1.362       .  A
C27          C96   1.484       .  S
N28          C29   1.366       .  A
C29          N30   1.355       .  A
C29          C93   1.486       .  S
C31          N32   1.362       .  A
C31          N36   1.361       .  A
C31         C100   1.432       .  S
N32          C33   1.358       .  A
C33          N34   1.352       .  A
C33          C84   1.468       .  S
N34          C35   1.353       .  A
C35          N36   1.356       .  A
C35          C89   1.471       .  S
O37         Mn63   2.092       .  S
O37         C350   1.272   1_545  A
C38         C129   1.472       .  S
C38          O71   1.272       .  A
C38          O68   1.273       .  A
O39         Mn46   2.167       .  S
O39         Mn57   2.133       .  S
O39         Mn61   2.158       .  S
O39        Mn349   2.125       .  S
O40         Mn74   2.078       .  S
O40          C50   1.268       .  A
O41         Mn57   2.113       .  S
O41          C64   1.276       .  A
O42         Mn61   2.081       .  S
O42          C69   1.248       .  A
O43         Mn63   1.955       .  S
O43        Mn646   1.951       .  S
O43          C59   1.211       .  S
C44         C116   1.484       .  S
C44          O47   1.251       .  A
C44          O70   1.223       .  S
O45         Mn46   2.164       .  S
O45         Mn79   2.134       .  S
O45         Mn61   2.165       .  S
O45        Mn637   2.136       .  S
Mn46         O51   2.074       .  S
Mn46        O647   2.097       .  S
Mn46        O364   2.099       .  S
Mn46        O910   2.152       .  S
O47        Mn633   2.096   1_455  S
O48         Mn55   2.103       .  S
O48          C50   1.273       .  A
C49         C108   1.489       .  S
C49          O75   1.252       .  A
C49          O62   1.227       .  S
C50         C137   1.470       .  S
O51          C76   1.247       .  A
O52         Mn55   2.131       .  S
O52         Mn74   2.111       .  S
O52        Mn904   2.162   1_445  S
O52        Mn919   2.162   1_445  S
O53         Mn57   1.978       .  S
O53         Mn79   1.975       .  S
O53          C76   1.228       .  S
C54          C97   1.489       .  S
C54          O56   1.274       .  A
C54         O652   1.276       .  A
Mn55         O68   2.101       .  S
Mn55        O356   1.971   1_545  S
Mn55        O348   1.967   1_545  S
O56         Mn79   2.103       .  S
Mn57         O73   2.118       .  S
Mn57         O67   1.981       .  S
O58         Mn63   2.093       .  S
O58         C346   1.271   1_545  A
C59          C92   1.476       .  S
C59          O77   1.259       .  A
C60         C105   1.476       .  S
C60          O73   1.275       .  A
C60         O344   1.269       .  A
Mn61        O619   2.089       .  S
Mn61        O363   2.098       .  S
Mn61        O910   2.155       .  S
O62         Mn65   1.973       .  S
O62        Mn341   1.975       .  S
Mn63        O325   2.113   1_545  S
Mn63         O81   1.950       .  S
C64         C112   1.476       .  S
C64         O323   1.270       .  A
Mn65         O72   2.101       .  S
Mn65         O80   2.096       .  S
Mn65        O617   2.137   1_455  S
Mn65         O70   1.970       .  S
C66          C88   1.468       .  S
C66          O82   1.268       .  A
C66         O644   1.273       .  A
O67         Mn79   1.965       .  S
O67          C69   1.226       .  S
C69         C133   1.477       .  S
O70        Mn341   1.969       .  S
O71         Mn74   2.093       .  S
O72         C638   1.273   1_455  A
Mn74        O615   1.951   1_455  S
Mn74        O653   1.944   1_455  S
O75        Mn618   2.097   1_455  S
C76         C125   1.477       .  S
O77        Mn347   2.139   1_545  S
O78        Mn332   2.115   1_545  S
O78          C83   1.247       .  A
Mn79         O82   2.079       .  S
O80         C626   1.272   1_455  A
O81        Mn646   1.949       .  S
O81          C83   1.214       .  S
C83          C85   1.479       .  S
C84          C85   1.345       .  D
C84          H86   1.088       .  S
C85         H659   1.087       .  S
H87         C657   1.087       .  S
C88          C89   1.341       .  D
C88          H90   1.088       .  S
C89         H663   1.086       .  S
H91         C661   1.089   1_455  S
C92          C93   1.338       .  D
C92          H94   1.089       .  S
C93         H667   1.089       .  S
H95         C665   1.090       .  S
C96          C97   1.347       .  D
C96         H670   1.086       .  S
C97          H99   1.087       .  S
H98         C668   1.086       .  S
C100        C101   1.204       .  T
C101        C245   1.409       .  S
C102        C103   1.207       .  T
C102        C244   1.415   1_554  S
C104        C105   1.343       .  D
C104        H106   1.086       .  S
C105        H393   1.088       .  S
H107        C391   1.088       .  S
C108        C109   1.344       .  D
C108        H110   1.088       .  S
C109        H397   1.089       .  S
H111        C395   1.089       .  S
C112        C113   1.342       .  D
C112        H114   1.087       .  S
C113        H115   1.085       .  S
C116        C117   1.345       .  D
C116        H118   1.083       .  S
C117        H119   1.084       .  S
C120        C121   1.212       .  T
C121        C265   1.422   1_554  S
C122        C123   1.215       .  T
C122        C264   1.427       .  S
C124        C125   1.337       .  D
C124        H126   1.087       .  S
C125        H127   1.086       .  S
C128        C129   1.347       .  D
C128        H130   1.087       .  S
C129        H131   1.089       .  S
C132        C133   1.338       .  D
C132        H134   1.091       .  S
C133        H135   1.090       .  S
C136        C137   1.341       .  D
C136        H138   1.087       .  S
C137        H139   1.089       .  S
C140        C141   1.209       .  T
C141        C285   1.418   1_554  S
C142        C143   1.214       .  T
C142        C284   1.425       .  S
C144        N145   1.367       .  A
C144        N149   1.362       .  A
C144        C283   1.449       .  S
N145        C146   1.365       .  A
C146        N147   1.358       .  A
C146        C275   1.485       .  S
N147        C148   1.357       .  A
C148        N149   1.358       .  A
C148        C279   1.482       .  S
C150        N151   1.363       .  A
C150        N155   1.361       .  A
C150        C286   1.442       .  S
N151        C152   1.363       .  A
C152        N153   1.353       .  A
C152        C267   1.477       .  S
N153        C154   1.353       .  A
C154        N155   1.357       .  A
C154        C271   1.466       .  S
C156        N157   1.364       .  A
C156        N161   1.365       .  A
C156        C263   1.450       .  S
N157        C158   1.362       .  A
C158        N159   1.356       .  A
C158        C260   1.479       .  S
N159        C160   1.356       .  A
C160        N161   1.362       .  A
C160        C256   1.485       .  S
C162        N163   1.362       .  A
C162        N167   1.364       .  A
C162        C266   1.445       .  S
N163        C164   1.359       .  A
C164        N165   1.351       .  A
C164        C247   1.466       .  S
N165        C166   1.352       .  A
C166        N167   1.364       .  A
C166        C252   1.476       .  S
C168        N169   1.360       .  A
C168        N173   1.360       .  A
C168        C246   1.432       .  S
N169        C170   1.357       .  A
C170        N171   1.354       .  A
C170        C239   1.468       .  S
N171        C172   1.356       .  A
C172        N173   1.358       .  A
C172        C236   1.472       .  S
C174        N175   1.363       .  A
C174        N179   1.359       .  A
C174        C243   1.438       .  S
N175        C176   1.363       .  A
C176        N177   1.352       .  A
C176        C227   1.476       .  S
N177        C178   1.354       .  A
C178        N179   1.355       .  A
C178        C232   1.467       .  S
O180       Mn206   2.116       .  S
O180        C493   1.275   1_545  A
C181        C272   1.470       .  S
C181        O214   1.264       .  A
C181        O211   1.276       .  A
O182       Mn189   2.150       .  S
O182       Mn200   2.130       .  S
O182       Mn204   2.178       .  S
O182       Mn492   2.114       .  S
O183       Mn217   2.083       .  S
O183        C193   1.269       .  A
O184       Mn200   2.106       .  S
O184        C207   1.273       .  A
O185       Mn204   2.116       .  S
O185        C212   1.255       .  A
O186       Mn789   1.945       .  S
O186       Mn206   1.938       .  S
O186        C202   1.215       .  S
C187        C259   1.486       .  S
C187        O190   1.258       .  A
C187        O213   1.224       .  S
O188       Mn780   2.138       .  S
O188       Mn189   2.156       .  S
O188       Mn222   2.134       .  S
O188       Mn204   2.176       .  S
Mn189       O790   2.071       .  S
Mn189       O194   2.084       .  S
Mn189       O507   2.095       .  S
Mn189      O1053   2.164       .  S
O190       Mn776   2.115   1_455  S
O191       Mn198   2.118       .  S
O191        C193   1.275       .  A
C192        C251   1.479       .  S
C192        O218   1.246       .  A
C192        O205   1.224       .  S
C193        C280   1.479       .  S
O194        C219   1.249       .  A
O195      Mn1047   2.158   1_445  S
O195       Mn198   2.134       .  S
O195       Mn217   2.114       .  S
O195      Mn1062   2.197   1_445  S
O196       Mn200   1.975       .  S
O196       Mn222   1.968       .  S
O196        C219   1.225       .  S
C197        C240   1.476       .  S
C197        O795   1.272       .  A
C197        O199   1.272       .  A
Mn198       O211   2.117       .  S
Mn198       O499   1.970   1_545  S
Mn198       O491   1.977   1_545  S
O199       Mn222   2.086       .  S
Mn200       O216   2.104       .  S
Mn200       O210   1.968       .  S
O201       Mn206   2.083       .  S
O201        C489   1.269   1_545  A
C202        C235   1.481       .  S
C202        O220   1.253       .  A
C203        C248   1.476       .  S
C203        O487   1.270       .  A
C203        O216   1.275       .  A
Mn204       O762   2.117       .  S
Mn204       O506   2.145       .  S
Mn204      O1053   2.166       .  S
O205       Mn484   1.980       .  S
O205       Mn208   1.968       .  S
Mn206       O468   2.123   1_545  S
Mn206       O224   1.985       .  S
C207        C255   1.482       .  S
C207        O466   1.273       .  A
Mn208       O215   2.099       .  S
Mn208       O223   2.108       .  S
Mn208       O760   2.134   1_455  S
Mn208       O213   1.971       .  S
C209        C231   1.466       .  S
C209        O787   1.273       .  A
C209        O225   1.268       .  A
O210       Mn222   1.958       .  S
O210        C212   1.223       .  S
C212        C276   1.491       .  S
O213       Mn484   1.973       .  S
O214       Mn217   2.057       .  S
O215        C781   1.273   1_455  A
Mn217       O758   1.984   1_455  S
Mn217       O796   1.969   1_455  S
O218       Mn761   2.081   1_455  S
C219        C268   1.480       .  S
O220       Mn490   2.125   1_545  S
O221       Mn475   2.082   1_545  S
O221        C226   1.249       .  A
Mn222       O225   2.075       .  S
O223        C769   1.274   1_455  A
O224       Mn789   1.979       .  S
O224        C226   1.226       .  S
C226        C228   1.479       .  S
C227        C228   1.341       .  D
C227        H229   1.088       .  S
C228        H802   1.087       .  S
H230        C800   1.090       .  S
C231        C232   1.339       .  D
C231        H233   1.088       .  S
C232        H806   1.086       .  S
H234        C804   1.087       .  S
C235        C236   1.349       .  D
C235        H237   1.083       .  S
C236        H810   1.085       .  S
H238        C808   1.085       .  S
C239        C240   1.343       .  D
C239        H813   1.087       .  S
C240        H242   1.087       .  S
H241        C811   1.087   1_455  S
C243        C244   1.207       .  T
C245        C246   1.204       .  T
C247        C248   1.341       .  D
C247        H249   1.087       .  S
C248        H536   1.089       .  S
H250        C534   1.088   1_545  S
C251        C252   1.340       .  D
C251        H253   1.087       .  S
C252        H540   1.088       .  S
H254        C538   1.086       .  S
C255        C256   1.348       .  D
C255        H257   1.087       .  S
C256        H258   1.086       .  S
C259        C260   1.348       .  D
C259        H261   1.085       .  S
C260        H262   1.086       .  S
C263        C264   1.215       .  T
C265        C266   1.211       .  T
C267        C268   1.342       .  D
C267        H269   1.085       .  S
C268        H270   1.084       .  S
C271        C272   1.337       .  D
C271        H273   1.087       .  S
C272        H274   1.091       .  S
C275        C276   1.349       .  D
C275        H277   1.086       .  S
C276        H278   1.085       .  S
C279        C280   1.343       .  D
C279        H281   1.085       .  S
C280        H282   1.087       .  S
C283        C284   1.214       .  T
C285        C286   1.209       .  T
C287        N288   1.363       .  A
C287        N292   1.361       .  A
C287        C426   1.438       .  S
N288        C289   1.361       .  A
C289        N290   1.354       .  A
C289        C418   1.475       .  S
N290        C291   1.355       .  A
C291        N292   1.356       .  A
C291        C422   1.474       .  S
C293        N294   1.365       .  A
C293        N298   1.356       .  A
C293        C429   1.434       .  S
N294        C295   1.365       .  A
C295        N296   1.349       .  A
C295        C410   1.472       .  S
N296        C297   1.350       .  A
C297        N298   1.352       .  A
C297        C414   1.453       .  S
C299        N300   1.363       .  A
C299        N304   1.363       .  A
C299        C406   1.442       .  S
N300        C301   1.362       .  A
C301        N302   1.351       .  A
C301        C403   1.474       .  S
N302        C303   1.353       .  A
C303        N304   1.359       .  A
C303        C399   1.472       .  S
C305        N306   1.359   1_565  A
C305        N310   1.367       .  A
C305        C409   1.442   1_565  S
N306        C307   1.354   1_545  A
C307        N308   1.354       .  A
C307        C390   1.469       .  S
N308        C309   1.355       .  A
C309        N310   1.366       .  A
C309        C395   1.481       .  S
C311        N312   1.360       .  A
C311        N316   1.362       .  A
C311        C389   1.438       .  S
N312        C313   1.356       .  A
C313        N314   1.356       .  A
C313        C382   1.471       .  S
N314        C315   1.356       .  A
C315        N316   1.362       .  A
C315        C379   1.477       .  S
C317        N318   1.363       .  A
C317        N322   1.355       .  A
C317        C386   1.429       .  S
N318        C319   1.362       .  A
C319        N320   1.354       .  A
C319        C370   1.473       .  S
N320        C321   1.354       .  A
C321        N322   1.351       .  A
C321        C375   1.461       .  S
O323       Mn349   2.083       .  S
C324        C415   1.460       .  S
C324        O357   1.267       .  A
C324        O354   1.271       .  A
O325       Mn332   2.167       .  S
O325       Mn343   2.126       .  S
O325       Mn347   2.164       .  S
O326       Mn360   2.078       .  S
O326        C336   1.268       .  A
O327       Mn343   2.096       .  S
O327        C350   1.272       .  A
O328       Mn347   2.109       .  S
O328        C355   1.252       .  A
O329       Mn932   1.963       .  S
O329       Mn349   1.969       .  S
O329        C345   1.222       .  S
C330        C402   1.477       .  S
C330        O333   1.248       .  A
C330        O356   1.225       .  S
O331       Mn923   2.132       .  S
O331       Mn332   2.159       .  S
O331       Mn365   2.132       .  S
O331       Mn347   2.186       .  S
Mn332       O933   2.095       .  S
Mn332       O337   2.068       .  S
Mn332       O624   2.154   1_565  S
O333       Mn919   2.079   1_455  S
O334       Mn341   2.109       .  S
O334        C336   1.274       .  A
C335        C394   1.487       .  S
C335        O361   1.253       .  A
C335        O348   1.227       .  S
C336        C423   1.472       .  S
O337        C362   1.247       .  A
O338       Mn618   2.153   1_455  S
O338       Mn341   2.133       .  S
O338       Mn360   2.129       .  S
O338       Mn633   2.158   1_455  S
O339       Mn343   1.983       .  S
O339       Mn365   1.978       .  S
O339        C362   1.229       .  S
C340        C383   1.476       .  S
C340        O938   1.271       .  A
C340        O342   1.269       .  A
Mn341       O354   2.085       .  S
O342       Mn365   2.089       .  S
Mn343       O359   2.086       .  S
Mn343       O353   1.953       .  S
O344       Mn349   2.082       .  S
C345        C378   1.481       .  S
C345        O363   1.250       .  A
C346        C391   1.471       .  S
C346        O359   1.269       .  A
Mn347       O905   2.102       .  S
Mn347       O624   2.160   1_565  S
O348       Mn351   1.966       .  S
Mn349       O367   1.956       .  S
C350        C398   1.470       .  S
Mn351       O358   2.086       .  S
Mn351       O366   2.094       .  S
Mn351       O903   2.136   1_455  S
Mn351       O356   1.966       .  S
C352        C374   1.462       .  S
C352        O930   1.272       .  A
C352        O368   1.268       .  A
O353       Mn365   1.945       .  S
O353        C355   1.221       .  S
C355        C419   1.483       .  S
O357       Mn360   2.070       .  S
O358        C924   1.271   1_455  A
Mn360       O901   1.958   1_455  S
Mn360       O939   1.959   1_455  S
O361       Mn904   2.099   1_455  S
C362        C411   1.475       .  S
O364        C369   1.249       .  A
Mn365       O368   2.076       .  S
O366        C912   1.272   1_455  A
O367       Mn932   1.953       .  S
O367        C369   1.220       .  S
C369        C371   1.479       .  S
C370        C371   1.342       .  D
C370        H372   1.091       .  S
C371        H945   1.089       .  S
H373        C943   1.092       .  S
C374        C375   1.337       .  D
C374        H376   1.086       .  S
C375        H949   1.085       .  S
H377        C947   1.086       .  S
C378        C379   1.345       .  D
C378        H380   1.091       .  S
C379        H953   1.092       .  S
H381        C951   1.093       .  S
C382        C383   1.342       .  D
C382        H956   1.087       .  S
C383        H385   1.089       .  S
H384        C954   1.087       .  S
C386        C387   1.202       .  T
C387        C531   1.407       .  S
C388        C389   1.207       .  T
C388        C530   1.414   1_554  S
C390        C391   1.340       .  D
C390        H392   1.087   1_565  S
C394        C395   1.344       .  D
C394        H396   1.087       .  S
C398        C399   1.344       .  D
C398        H400   1.087   1_565  S
C399        H401   1.085       .  S
C402        C403   1.339       .  D
C402        H404   1.086       .  S
C403        H405   1.087       .  S
C406        C407   1.210       .  T
C407        C551   1.418   1_554  S
C408        C409   1.210       .  T
C408        C550   1.419   1_545  S
C410        C411   1.335       .  D
C410        H412   1.091       .  S
C411        H413   1.091       .  S
C414        C415   1.337       .  D
C414        H416   1.085       .  S
C415        H417   1.087       .  S
C418        C419   1.345       .  D
C418        H420   1.092       .  S
C419        H421   1.090       .  S
C422        C423   1.341       .  D
C422        H424   1.086       .  S
C423        H425   1.088       .  S
C426        C427   1.207       .  T
C427        C571   1.414   1_554  S
C428        C429   1.205       .  T
C428        C570   1.411       .  S
C430        N431   1.354       .  A
C430        N435   1.364       .  A
C430        C569   1.431       .  S
N431        C432   1.348       .  A
C432        N433   1.363       .  A
C432        C561   1.481       .  S
N433        C434   1.358       .  A
C434        N435   1.363       .  A
C434        C565   1.484       .  S
C436        N437   1.362       .  A
C436        N441   1.362       .  A
C436        C572   1.437       .  S
N437        C438   1.359       .  A
C438        N439   1.355       .  A
C438        C553   1.474       .  S
N439        C440   1.356       .  A
C440        N441   1.358       .  A
C440        C557   1.477       .  S
C442        N443   1.359       .  A
C442        N447   1.364       .  A
C442        C549   1.443       .  S
N443        C444   1.358       .  A
C444        N445   1.358       .  A
C444        C546   1.477       .  S
N445        C446   1.358       .  A
C446        N447   1.362       .  A
C446        C542   1.484       .  S
C448        N449   1.360       .  A
C448        N453   1.364       .  A
C448        C552   1.442       .  S
N449        C450   1.356       .  A
C450        N451   1.354       .  A
C450        C533   1.466       .  S
N451        C452   1.352       .  A
C452        N453   1.364       .  A
C452        C538   1.478       .  S
C454        N455   1.359       .  A
C454        N459   1.352       .  A
C454        C532   1.429       .  S
N455        C456   1.360       .  A
C456        N457   1.365       .  A
C456        C525   1.486       .  S
N457        C458   1.367       .  A
C458        N459   1.351       .  A
C458        C522   1.481       .  S
C460        N461   1.362       .  A
C460        N465   1.362       .  A
C460        C529   1.437       .  S
N461        C462   1.360       .  A
C462        N463   1.350       .  A
C462        C513   1.468       .  S
N463        C464   1.351       .  A
C464        N465   1.357       .  A
C464        C518   1.464       .  S
O466       Mn492   2.104       .  S
C467        C558   1.470       .  S
C467        O500   1.264       .  A
C467        O497   1.274       .  A
O468       Mn475   2.165       .  S
O468       Mn486   2.112       .  S
O468       Mn490   2.178       .  S
O469       Mn503   2.093       .  S
O469        C479   1.270       .  A
O470       Mn486   2.096       .  S
O470        C493   1.272       .  A
O471       Mn490   2.147       .  S
O471        C498   1.259       .  A
O472      Mn1075   1.942       .  S
O472       Mn492   1.938       .  S
O472        C488   1.206       .  S
C473        C545   1.482       .  S
C473        O476   1.258       .  A
C473        O499   1.222       .  S
O474      Mn1066   2.135       .  S
O474       Mn475   2.170       .  S
O474       Mn508   2.115       .  S
O474       Mn490   2.174       .  S
Mn475      O1076   2.081       .  S
Mn475       O480   2.122       .  S
Mn475       O767   2.163   1_565  S
O476      Mn1062   2.116   1_455  S
O477       Mn484   2.123       .  S
O477        C479   1.277       .  A
C478        C537   1.480       .  S
C478        O504   1.248       .  A
C478        O491   1.225       .  S
C479        C566   1.485       .  S
O480        C505   1.249       .  A
O481       Mn761   2.172   1_455  S
O481       Mn484   2.130       .  S
O481       Mn503   2.116       .  S
O481       Mn776   2.184   1_455  S
O482       Mn486   1.964       .  S
O482       Mn508   1.967       .  S
O482        C505   1.213       .  S
C483        C526   1.486       .  S
C483       O1081   1.276       .  A
C483        O485   1.273       .  A
Mn484       O497   2.114       .  S
O485       Mn508   2.101       .  S
Mn486       O502   2.083       .  S
Mn486       O496   2.013       .  S
O487       Mn492   2.084       .  S
C488        C521   1.471       .  S
C488        O506   1.259       .  A
C489        C534   1.466       .  S
C489        O502   1.270       .  A
Mn490      O1048   2.102       .  S
Mn490       O767   2.183   1_565  S
O491       Mn494   1.974       .  S
Mn492       O510   1.974       .  S
C493        C541   1.484       .  S
Mn494       O501   2.095       .  S
Mn494       O509   2.125       .  S
Mn494      O1046   2.135   1_455  S
Mn494       O499   1.965       .  S
C495        C517   1.466       .  S
C495       O1073   1.272       .  A
C495        O511   1.264       .  A
O496       Mn508   2.002       .  S
O496        C498   1.229       .  A
C498        C562   1.461       .  S
O500       Mn503   2.066       .  S
O501       C1067   1.271   1_455  A
Mn503      O1044   1.989   1_455  S
Mn503      O1082   1.981   1_455  S
O504      Mn1047   2.081   1_455  S
C505        C554   1.482       .  S
O507        C512   1.246       .  A
Mn508       O511   2.062       .  S
O509       C1055   1.277   1_455  A
O510      Mn1075   1.961       .  S
O510        C512   1.219       .  S
C512        C514   1.476       .  S
C513        C514   1.340       .  D
C513        H515   1.092       .  S
C514       H1088   1.091       .  S
H516       C1086   1.089       .  S
C517        C518   1.339       .  D
C517        H519   1.088       .  S
C518       H1092   1.085       .  S
H520       C1090   1.086       .  S
C521        C522   1.333       .  D
C521        H523   1.089       .  S
C522       H1096   1.088       .  S
H524       C1094   1.084       .  S
C525        C526   1.345       .  D
C525       H1099   1.085       .  S
C526        H528   1.085       .  S
H527       C1097   1.085   1_455  S
C529        C530   1.207       .  T
C531        C532   1.202       .  T
C533        C534   1.340       .  D
C533        H535   1.086       .  S
C537        C538   1.341       .  D
C537        H539   1.085       .  S
C541        C542   1.346       .  D
C541        H543   1.088       .  S
C542        H544   1.086   1_565  S
C545        C546   1.350       .  D
C545        H547   1.085       .  S
C546        H548   1.086       .  S
C549        C550   1.210       .  T
C551        C552   1.210       .  T
C553        C554   1.348       .  D
C553        H555   1.086       .  S
C554        H556   1.084       .  S
C557        C558   1.341       .  D
C557        H559   1.085       .  S
C558        H560   1.087       .  S
C561        C562   1.329       .  D
C561        H563   1.078       .  S
C562        H564   1.080       .  S
C565        C566   1.345       .  D
C565        H567   1.087       .  S
C566        H568   1.087       .  S
C569        C570   1.204       .  T
C571        C572   1.207       .  T
C573        N574   1.364       .  A
C573        N578   1.363       .  A
C573        C712   1.443       .  S
N574        C575   1.362       .  A
C575        N576   1.352       .  A
C575        C704   1.474       .  S
N576        C577   1.354       .  A
C577        N578   1.359       .  A
C577        C708   1.475       .  S
C579        N580   1.363       .  A
C579        N584   1.356       .  A
C579        C715   1.432       .  S
N580        C581   1.363       .  A
C581        N582   1.351       .  A
C581        C696   1.469       .  S
N582        C583   1.349       .  A
C583        N584   1.352       .  A
C583        C700   1.454       .  S
C585        N586   1.361       .  A
C585        N590   1.363       .  A
C585        C692   1.442       .  S
N586        C587   1.360       .  A
C587        N588   1.353       .  A
C587        C689   1.474       .  S
N588        C589   1.355       .  A
C589        N590   1.360       .  A
C589        C685   1.472       .  S
C591        N592   1.363       .  A
C591        N596   1.368       .  A
C591        C695   1.450       .  S
N592        C593   1.358       .  A
C593        N594   1.353       .  A
C593        C676   1.473       .  S
N594        C595   1.353       .  A
C595        N596   1.366       .  A
C595        C681   1.480       .  S
C597        N598   1.361       .  A
C597        N602   1.360       .  A
C597        C675   1.431       .  S
N598        C599   1.357       .  A
C599        N600   1.354   1_455  A
C599        C668   1.472       .  S
N600        C601   1.352       .  A
C601        N602   1.357   1_655  A
C601        C665   1.466       .  S
C603        N604   1.360       .  A
C603        N608   1.359       .  A
C603        C672   1.430       .  S
N604        C605   1.355       .  A
C605        N606   1.359       .  A
C605        C656   1.480       .  S
N606        C607   1.352       .  A
C607        N608   1.358       .  A
C607        C661   1.470       .  S
O609       Mn635   2.087       .  S
O609        C922   1.270   1_545  A
C610        C701   1.467       .  S
C610        O643   1.268       .  A
C610        O640   1.270       .  A
O611       Mn618   2.167       .  S
O611       Mn629   2.128       .  S
O611       Mn633   2.163       .  S
O611       Mn921   2.125       .  S
O612       Mn646   2.091       .  S
O612        C622   1.271       .  A
O613       Mn629   2.107       .  S
O613        C636   1.274       .  A
O614       Mn633   2.094       .  S
O614        C641   1.251       .  A
O615       Mn635   1.952       .  S
O615        C631   1.214       .  S
C616        C688   1.477       .  S
C616        O619   1.250       .  A
C616        O642   1.222       .  S
O617       Mn618   2.158       .  S
O617       Mn651   2.128       .  S
O617       Mn633   2.158       .  S
Mn618       O623   2.086       .  S
Mn618       O936   2.089       .  S
O620       Mn627   2.101       .  S
O620        C622   1.274       .  A
C621        C680   1.486       .  S
C621        O647   1.251       .  A
C621        O634   1.225       .  S
C622        C709   1.471       .  S
O623        C648   1.246       .  A
O624       Mn627   2.123       .  S
O624       Mn646   2.116       .  S
O625       Mn629   1.963       .  S
O625       Mn651   1.951       .  S
O625        C648   1.223       .  S
C626        C669   1.469       .  S
C626        O628   1.270       .  A
Mn627       O640   2.079       .  S
Mn627       O928   1.961   1_545  S
Mn627       O920   1.976   1_545  S
O628       Mn651   2.085       .  S
Mn629       O645   2.102       .  S
Mn629       O639   1.973       .  S
O630       Mn635   2.095       .  S
O630        C918   1.271   1_545  A
C631        C664   1.476       .  S
C631        O649   1.248       .  A
C632        C677   1.473       .  S
C632        O916   1.269       .  A
C632        O645   1.272       .  A
Mn633       O935   2.097       .  S
O634       Mn913   1.974       .  S
O634       Mn637   1.973       .  S
Mn635       O897   2.108   1_545  S
Mn635       O653   1.947       .  S
C636        C684   1.475       .  S
C636        O895   1.271       .  A
Mn637       O644   2.103       .  S
Mn637       O652   2.118       .  S
Mn637       O642   1.970       .  S
C638        C660   1.472       .  S
C638        O654   1.269       .  A
O639       Mn651   1.973       .  S
O639        C641   1.225       .  S
C641        C705   1.480       .  S
O642       Mn913   1.972       .  S
O643       Mn646   2.083       .  S
C648        C697   1.475       .  S
O649       Mn919   2.112   1_545  S
O650       Mn904   2.129   1_545  S
O650        C655   1.253       .  A
Mn651       O654   2.086       .  S
O653        C655   1.209       .  S
C655        C657   1.465       .  S
C656        C657   1.339       .  D
C656        H658   1.085       .  S
C660        C661   1.339       .  D
C660        H662   1.089       .  S
C664        C665   1.344       .  D
C664        H666   1.088       .  S
C668        C669   1.342   1_455  D
C669        H671   1.087       .  S
C672        C673   1.202       .  T
C673        C817   1.406       .  S
C674        C675   1.203       .  T
C674        C816   1.408   1_554  S
C676        C677   1.343       .  D
C676        H678   1.087       .  S
C677        H965   1.089       .  S
H679        C963   1.089   1_545  S
C680        C681   1.343       .  D
C680        H682   1.089       .  S
C681        H969   1.090       .  S
H683        C967   1.091       .  S
C684        C685   1.342       .  D
C684        H686   1.088       .  S
C685        H687   1.085       .  S
C688        C689   1.343       .  D
C688        H690   1.082       .  S
C689        H691   1.083       .  S
C692        C693   1.209       .  T
C693        C837   1.418   1_554  S
C694        C695   1.214       .  T
C694        C836   1.426       .  S
C696        C697   1.339       .  D
C696        H698   1.089       .  S
C697        H699   1.087       .  S
C700        C701   1.339       .  D
C700        H702   1.086       .  S
C701        H703   1.088       .  S
C704        C705   1.341       .  D
C704        H706   1.093       .  S
C705        H707   1.092       .  S
C708        C709   1.344       .  D
C708        H710   1.087       .  S
C709        H711   1.088       .  S
C712        C713   1.210       .  T
C713        C857   1.419   1_554  S
C714        C715   1.204       .  T
C714        C856   1.409       .  S
C716        N717   1.353       .  A
C716        N721   1.363       .  A
C716        C855   1.430       .  S
N717        C718   1.348       .  A
C718        N719   1.365       .  A
C718        C847   1.479       .  S
N719        C720   1.361       .  A
C720        N721   1.363       .  A
C720        C851   1.487       .  S
C722        N723   1.364       .  A
C722        N727   1.364       .  A
C722        C858   1.443       .  S
N723        C724   1.361       .  A
C724        N725   1.353       .  A
C724        C839   1.475       .  S
N725        C726   1.354       .  A
C726        N727   1.359       .  A
C726        C843   1.478       .  S
C728        N729   1.364       .  A
C728        N733   1.367       .  A
C728        C835   1.450       .  S
N729        C730   1.361       .  A
C730        N731   1.354       .  A
C730        C832   1.478       .  S
N731        C732   1.355       .  A
C732        N733   1.363       .  A
C732        C828   1.489       .  S
C734        N735   1.357       .  A
C734        N739   1.366       .  A
C734        C838   1.441       .  S
N735        C736   1.353       .  A
C736        N737   1.353       .  A
C736        C819   1.458       .  S
N737        C738   1.353       .  A
C738        N739   1.366       .  A
C738        C824   1.482       .  S
C740        N741   1.359       .  A
C740        N745   1.356       .  A
C740        C818   1.429       .  S
N741        C742   1.359       .  A
C742        N743   1.361       .  A
C742        C811   1.483       .  S
N743        C744   1.367       .  A
C744        N745   1.352       .  A
C744        C808   1.486       .  S
C746        N747   1.360       .  A
C746        N751   1.359       .  A
C746        C815   1.431       .  S
N747        C748   1.359   1_455  A
C748        N749   1.354       .  A
C748        C799   1.470       .  S
N749        C750   1.355   1_655  A
C750        N751   1.355       .  A
C750        C804   1.468       .  S
O752       Mn778   2.089       .  S
O752       C1065   1.270   1_545  A
C753        C844   1.474       .  S
C753        O786   1.271       .  A
C753        O783   1.273       .  A
O754       Mn761   2.162       .  S
O754       Mn772   2.113       .  S
O754       Mn776   2.198       .  S
O754      Mn1064   2.115       .  S
O755       Mn789   2.099       .  S
O755        C765   1.271       .  A
O756       Mn772   2.116       .  S
O756        C779   1.272       .  A
O757       Mn776   2.157       .  S
O757        C784   1.257       .  A
O758       Mn778   1.997       .  S
O758        C774   1.227       .  A
C759        C831   1.487       .  S
C759        O762   1.257       .  A
C759        O785   1.223       .  S
O760       Mn761   2.165       .  S
O760       Mn794   2.117       .  S
O760       Mn776   2.183       .  S
Mn761       O766   2.108       .  S
Mn761      O1079   2.095       .  S
O763       Mn770   2.117       .  S
O763        C765   1.275       .  A
C764        C823   1.482       .  S
C764        O790   1.246       .  A
C764        O777   1.228       .  S
C765        C852   1.485       .  S
O766        C791   1.251       .  A
O767       Mn770   2.137       .  S
O767       Mn789   2.126       .  S
O768       Mn772   1.991       .  S
O768       Mn794   1.991       .  S
O768        C791   1.220       .  S
C769        C812   1.480       .  S
C769        O771   1.271       .  A
Mn770       O783   2.106       .  S
Mn770      O1071   1.982   1_545  S
Mn770      O1063   1.974   1_545  S
O771       Mn794   2.099       .  S
Mn772       O788   2.085       .  S
Mn772       O782   1.979       .  S
O773       Mn778   2.069       .  S
O773       C1061   1.265   1_545  A
C774        C807   1.468       .  S
C774        O792   1.260       .  A
C775        C820   1.464       .  S
C775       O1059   1.266       .  A
C775        O788   1.271       .  A
Mn776      O1078   2.147       .  S
O777      Mn1056   1.987       .  S
O777       Mn780   1.977       .  S
Mn778      O1040   2.107   1_545  S
Mn778       O796   1.969       .  S
C779        C827   1.480       .  S
C779       O1038   1.269       .  A
Mn780       O787   2.101       .  S
Mn780       O795   2.100       .  S
Mn780       O785   1.963       .  S
C781        C803   1.466       .  S
C781        O797   1.266       .  A
O782       Mn794   1.984       .  S
O782        C784   1.225       .  A
C784        C848   1.463       .  S
O785      Mn1056   1.962       .  S
O786       Mn789   2.093       .  S
C791        C840   1.483       .  S
O792      Mn1062   2.165   1_545  S
O793      Mn1047   2.105   1_545  S
O793        C798   1.247       .  A
Mn794       O797   2.070       .  S
O796        C798   1.216       .  S
C798        C800   1.476       .  S
C799        C800   1.344       .  D
C799        H801   1.091       .  S
C803        C804   1.339   1_655  D
C803        H805   1.088       .  S
C807        C808   1.331       .  D
C807        H809   1.087   1_655  S
C811        C812   1.346       .  D
C812        H814   1.087       .  S
C815        C816   1.203       .  T
C817        C818   1.202       .  T
C819        C820   1.336       .  D
C819        H821   1.087       .  S
C820       H1108   1.090       .  S
H822       C1106   1.087   1_545  S
C823        C824   1.340       .  D
C823        H825   1.085       .  S
C824       H1112   1.086       .  S
H826       C1110   1.086       .  S
C827        C828   1.349       .  D
C827        H829   1.086       .  S
C828        H830   1.085       .  S
C831        C832   1.348       .  D
C831        H833   1.086       .  S
C832        H834   1.088       .  S
C835        C836   1.214       .  T
C837        C838   1.209       .  T
C839        C840   1.345       .  D
C839        H841   1.085       .  S
C840        H842   1.084       .  S
C843        C844   1.345       .  D
C843        H845   1.086       .  S
C844        H846   1.088       .  S
C847        C848   1.328       .  D
C847        H849   1.087       .  S
C848        H850   1.089       .  S
C851        C852   1.347       .  D
C851        H853   1.085       .  S
C852        H854   1.085       .  S
C855        C856   1.203       .  T
C857        C858   1.210       .  T
C859        N860   1.362       .  A
C859        N864   1.362       .  A
C859        C998   1.439       .  S
N860        C861   1.361       .  A
C861        N862   1.352       .  A
C861        C990   1.475       .  S
N862        C863   1.355       .  A
C863        N864   1.358       .  A
C863        C994   1.473       .  S
C865        N866   1.365       .  A
C865        N870   1.360       .  A
C865       C1001   1.440       .  S
N866        C867   1.363       .  A
C867        N868   1.353       .  A
C867        C982   1.473       .  S
N868        C869   1.350       .  A
C869        N870   1.357       .  A
C869        C986   1.465       .  S
C871        N872   1.363       .  A
C871        N876   1.363       .  A
C871        C978   1.442       .  S
N872        C873   1.361       .  A
C873        N874   1.354       .  A
C873        C975   1.473       .  S
N874        C875   1.352       .  A
C875        N876   1.359       .  A
C875        C971   1.470       .  S
C877        N878   1.364       .  A
C877        N882   1.370       .  A
C877        C981   1.456       .  S
N878        C879   1.360       .  A
C879        N880   1.354       .  A
C879        C962   1.481       .  S
N880        C881   1.353       .  A
C881        N882   1.368       .  A
C881        C967   1.485       .  S
C883        N884   1.362       .  A
C883        N888   1.364       .  A
C883        C961   1.440       .  S
N884        C885   1.357       .  A
C885        N886   1.353       .  A
C885        C954   1.471       .  S
N886        C887   1.352   1_455  A
C887        N888   1.362   1_655  A
C887        C951   1.473       .  S
C889        N890   1.365       .  A
C889        N894   1.358       .  A
C889        C958   1.438       .  S
N890        C891   1.364       .  A
C891        N892   1.352   1_655  A
C891        C942   1.474       .  S
N892        C893   1.350       .  A
C893        N894   1.354   1_455  A
C893        C947   1.459       .  S
O895       Mn921   2.086       .  S
C896        C987   1.472       .  S
C896        O929   1.268       .  A
C896        O926   1.274       .  A
O897       Mn904   2.173       .  S
O897       Mn915   2.125       .  S
O897       Mn919   2.160       .  S
O898       Mn932   2.080       .  S
O898        C908   1.269       .  A
O899       Mn915   2.108       .  S
O899        C922   1.275       .  A
O900       Mn919   2.086       .  S
O900        C927   1.250       .  A
O901       Mn921   1.967       .  S
O901        C917   1.223       .  S
C902        C974   1.481       .  S
C902        O905   1.252       .  A
C902        O928   1.221       .  S
O903       Mn904   2.173       .  S
O903       Mn937   2.128       .  S
O903       Mn919   2.158       .  S
Mn904       O909   2.105       .  S
O906       Mn913   2.106       .  S
O906        C908   1.274       .  A
C907        C966   1.490       .  S
C907        O933   1.251       .  A
C907        O920   1.228       .  S
C908        C995   1.470       .  S
O909        C934   1.251       .  A
O910       Mn913   2.132       .  S
O910       Mn932   2.125       .  S
O911       Mn915   1.959       .  S
O911       Mn937   1.947       .  S
O911        C934   1.221       .  S
C912        C955   1.469       .  S
C912        O914   1.270       .  A
Mn913       O926   2.103       .  S
O914       Mn937   2.088       .  S
Mn915       O931   2.105       .  S
Mn915       O925   1.980       .  S
O916       Mn921   2.086       .  S
C917        C950   1.479       .  S
C917        O935   1.250       .  A
C918        C963   1.477       .  S
C918        O931   1.273       .  A
O920       Mn923   1.974       .  S
Mn921       O939   1.964       .  S
C922        C970   1.479       .  S
Mn923       O930   2.087       .  S
Mn923       O938   2.097       .  S
Mn923       O928   1.953       .  S
C924        C946   1.469       .  S
C924        O940   1.268       .  A
O925       Mn937   1.972       .  S
O925        C927   1.224       .  S
C927        C991   1.478       .  S
O929       Mn932   2.079       .  S
C934        C983   1.481       .  S
O936        C941   1.248       .  A
Mn937       O940   2.083       .  S
O939        C941   1.224       .  S
C941        C943   1.480       .  S
C942        C943   1.340       .  D
C942        H944   1.093       .  S
C946        C947   1.339   1_655  D
C946        H948   1.087       .  S
C950        C951   1.341       .  D
C950        H952   1.092       .  S
C954        C955   1.343   1_455  D
C955        H957   1.088       .  S
C958        C959   1.207       .  T
C959       C1103   1.414       .  S
C960        C961   1.209       .  T
C960       C1102   1.417   1_554  S
C962        C963   1.346       .  D
C962        H964   1.088       .  S
C966        C967   1.343       .  D
C966        H968   1.089       .  S
C970        C971   1.341       .  D
C970        H972   1.088   1_565  S
C971        H973   1.087       .  S
C974        C975   1.345       .  D
C974        H976   1.083       .  S
C975        H977   1.085       .  S
C978        C979   1.209       .  T
C979       C1123   1.418   1_554  S
C980        C981   1.218       .  T
C980       C1122   1.432       .  S
C982        C983   1.344       .  D
C982        H984   1.087       .  S
C983        H985   1.085       .  S
C986        C987   1.339       .  D
C986        H988   1.087       .  S
C987        H989   1.088       .  S
C990        C991   1.342       .  D
C990        H992   1.086       .  S
C991        H993   1.085       .  S
C994        C995   1.341       .  D
C994        H996   1.087       .  S
C995        H997   1.089       .  S
C998        C999   1.208       .  T
C999       C1143   1.415   1_554  S
C1000      C1001   1.208       .  T
C1000      C1142   1.416       .  S
C1002      N1003   1.357       .  A
C1002      N1007   1.366       .  A
C1002      C1141   1.438       .  S
N1003      C1004   1.351       .  A
C1004      N1005   1.365       .  A
C1004      C1133   1.486       .  S
N1005      C1006   1.359       .  A
C1006      N1007   1.364       .  A
C1006      C1137   1.489       .  S
C1008      N1009   1.364       .  A
C1008      N1013   1.362       .  A
C1008      C1144   1.438       .  S
N1009      C1010   1.361       .  A
C1010      N1011   1.348       .  A
C1010      C1125   1.469       .  S
N1011      C1012   1.351       .  A
C1012      N1013   1.357       .  A
C1012      C1129   1.467       .  S
C1014      N1015   1.366       .  A
C1014      N1019   1.368       .  A
C1014      C1121   1.456       .  S
N1015      C1016   1.363       .  A
C1016      N1017   1.353       .  A
C1016      C1118   1.481       .  S
N1017      C1018   1.355       .  A
C1018      N1019   1.364       .  A
C1018      C1114   1.487       .  S
C1020      N1021   1.360       .  A
C1020      N1025   1.363       .  A
C1020      C1124   1.441       .  S
N1021      C1022   1.356       .  A
C1022      N1023   1.354       .  A
C1022      C1105   1.466       .  S
N1023      C1024   1.352       .  A
C1024      N1025   1.363       .  A
C1024      C1110   1.476       .  S
C1026      N1027   1.366       .  A
C1026      N1031   1.355       .  A
C1026      C1104   1.435       .  S
N1027      C1028   1.364       .  A
C1028      N1029   1.358       .  A
C1028      C1097   1.487       .  S
N1029      C1030   1.363       .  A
C1030      N1031   1.349       .  A
C1030      C1094   1.478       .  S
C1032      N1033   1.364       .  A
C1032      N1037   1.363       .  A
C1032      C1101   1.440       .  S
N1033      C1034   1.361       .  A
C1034      N1035   1.349       .  A
C1034      C1085   1.470       .  S
N1035      C1036   1.351       .  A
C1036      N1037   1.358       .  A
C1036      C1090   1.470       .  S
O1038     Mn1064   2.090       .  S
C1039      C1130   1.465       .  S
C1039      O1072   1.268       .  A
C1039      O1069   1.270       .  A
O1040     Mn1047   2.174       .  S
O1040     Mn1058   2.116       .  S
O1040     Mn1062   2.191       .  S
O1041     Mn1075   2.107       .  S
O1041      C1051   1.274       .  A
O1042     Mn1058   2.121       .  S
O1042      C1065   1.275       .  A
O1043     Mn1062   2.168       .  S
O1043      C1070   1.260       .  A
O1044     Mn1064   1.979       .  S
O1044      C1060   1.229       .  A
C1045      C1117   1.486       .  S
C1045      O1048   1.255       .  A
C1045      O1071   1.227       .  S
O1046     Mn1047   2.166       .  S
O1046     Mn1080   2.118       .  S
O1046     Mn1062   2.192       .  S
Mn1047     O1052   2.085       .  S
O1049     Mn1056   2.128       .  S
O1049      C1051   1.278       .  A
C1050      C1109   1.479       .  S
C1050      O1076   1.248       .  A
C1050      O1063   1.226       .  S
C1051      C1138   1.493       .  S
O1052      C1077   1.246       .  A
O1053     Mn1056   2.133       .  S
O1053     Mn1075   2.115       .  S
O1054     Mn1058   1.994       .  S
O1054     Mn1080   1.988       .  S
O1054      C1077   1.222       .  S
C1055      C1098   1.489       .  S
C1055      O1057   1.270       .  A
Mn1056     O1069   2.090       .  S
O1057     Mn1080   2.097       .  S
Mn1058     O1074   2.089       .  S
Mn1058     O1068   1.981       .  S
O1059     Mn1064   2.067       .  S
C1060      C1093   1.461       .  S
C1060      O1078   1.258       .  A
C1061      C1106   1.465       .  S
C1061      O1074   1.270       .  A
O1063     Mn1066   1.962       .  S
Mn1064     O1082   1.986       .  S
C1065      C1113   1.481       .  S
Mn1066     O1073   2.104       .  S
Mn1066     O1081   2.115       .  S
Mn1066     O1071   1.978       .  S
C1067      C1089   1.465       .  S
C1067      O1083   1.267       .  A
O1068     Mn1080   1.984       .  S
O1068      C1070   1.227       .  A
C1070      C1134   1.467       .  S
O1072     Mn1075   2.081       .  S
C1077      C1126   1.476       .  S
O1079      C1084   1.248       .  A
Mn1080     O1083   2.076       .  S
O1082      C1084   1.221       .  S
C1084      C1086   1.479       .  S
C1085      C1086   1.340   1_455  D
C1085      H1087   1.090   1_455  S
C1089      C1090   1.343   1_655  D
C1089      H1091   1.088       .  S
C1093      C1094   1.329       .  D
C1093      H1095   1.087       .  S
C1097      C1098   1.346       .  D
C1098      H1100   1.085       .  S
C1101      C1102   1.209       .  T
C1103      C1104   1.207       .  T
C1105      C1106   1.338       .  D
C1105      H1107   1.085       .  S
C1109      C1110   1.341       .  D
C1109      H1111   1.085       .  S
C1113      C1114   1.349       .  D
C1113      H1115   1.087   1_565  S
C1114      H1116   1.086       .  S
C1117      C1118   1.345       .  D
C1117      H1119   1.086       .  S
C1118      H1120   1.088       .  S
C1121      C1122   1.218       .  T
C1123      C1124   1.209       .  T
C1125      C1126   1.338       .  D
C1125      H1127   1.087       .  S
C1126      H1128   1.085       .  S
C1129      C1130   1.341       .  D
C1129      H1131   1.087       .  S
C1130      H1132   1.089       .  S
C1133      C1134   1.332       .  D
C1133      H1135   1.082       .  S
C1134      H1136   1.085       .  S
C1137      C1138   1.348       .  D
C1137      H1139   1.087       .  S
C1138      H1140   1.087       .  S
C1141      C1142   1.208       .  T
C1143      C1144   1.207       .  T
