geometry optimzed in LAMMPS
_audit_creation_date              2020-11-30 
_audit_creation_method            'lammps2cif' 
_symmetry_space_group_name_H-M    'P1' 
_symmetry_Int_Tables_number       1 
_symmetry_cell_setting            triclinic 
loop_ 
_symmetry_equiv_pos_as_xyz 
  x,y,z 
_cell_length_a                    42.70698867 
_cell_length_b                    42.661527882133456 
_cell_length_c                    91.87046109006967 
_cell_angle_alpha                 90.04594699234327 
_cell_angle_beta                  89.99729458881781 
_cell_angle_gamma                 89.88086562567766 
loop_ 
_atom_site_label 
_atom_site_type_symbol 
_atom_site_fract_x 
_atom_site_fract_y 
_atom_site_fract_z 
_atom_site_charge 
C1          C  0.02640955  0.47874742  0.09973642     0.02300
C2          C  0.02630052  0.98500333  0.08462751     0.02300
C3          C  0.49746805  0.98840003  0.07742475    -0.18200
C4          C  0.46895514  0.98515033  0.08489208     0.02300
C5          C  0.46931145  0.47880582  0.09997302     0.02300
C6          C  0.99800161  0.47560947  0.10716508    -0.18200
H7          H  0.49823761  0.47137054  0.11880947     0.04400
H8          H  0.99717500  0.99225942  0.06576027     0.04400
C9          C  0.21958780  0.99724543  0.00692714     0.02300
C10         C  0.21993812  0.99206808  0.02214442     0.02300
C11         C  0.24878245  0.98926287  0.02930864    -0.18200
C12         C  0.27714043  0.99138583  0.02173852     0.02300
C13         C  0.27682590  0.99686910  0.00658747     0.02300
C14         C  0.24805699  0.00005533  0.99940263    -0.18200
H15         H  0.24782844  0.00326711  0.98769199     0.04400
H16         H  0.24922655  0.98586827  0.04100713     0.04400
O17         O  0.21529079  0.00983716  0.20397421    -0.74400
O18         O  0.27948509  0.00602831  0.17486392    -0.74400
O19         O  0.21602952  0.00639455  0.17466935    -0.74500
O20         O  0.27953344  0.00917250  0.20420020    -0.74500
O21         O  0.27909316  0.45701273  0.20550637    -0.74400
O22         O  0.21605707  0.45421786  0.17589419    -0.74400
O23         O  0.27957831  0.45387328  0.17629181    -0.74400
O24         O  0.21451439  0.45756765  0.20501427    -0.74500
Ni25       Ni  0.24761613  0.00972222  0.18945701     1.25400
Ni26       Ni  0.24732484  0.45382868  0.19080140     1.25400
C27         C  0.20316771  0.48430584  0.20860781     0.87800
C28         C  0.29021745  0.47934146  0.17080948     0.87700
C29         C  0.20544701  0.97977407  0.17047058     0.87800
C30         C  0.29085481  0.98347139  0.20920632     0.87900
C31         C  0.02725472  0.00732790  0.92880202     0.02300
C32         C  0.02754241  0.00075421  0.94388398     0.02300
C33         C  0.99910223  0.99828999  0.95142747    -0.18200
C34         C  0.47036104  0.00228506  0.94431461     0.02300
C35         C  0.47007435  0.00889214  0.92927506     0.02300
C36         C  0.99845443  0.01166823  0.92172679    -0.18200
H37         H  0.99805648  0.01589769  0.91008716     0.04400
H38         H  0.99935235  0.99393598  0.96305743     0.04400
O39         O  0.28210818  0.48646743  0.85270347    -0.74400
O40         O  0.21704147  0.48796245  0.82399011    -0.74400
O41         O  0.28116532  0.48902032  0.82331049    -0.74500
O42         O  0.21884225  0.48559576  0.85338047    -0.74500
O43         O  0.21815533  0.03780449  0.85430267    -0.74400
O44         O  0.28050762  0.04118736  0.82429409    -0.74400
O45         O  0.21583573  0.04019243  0.82516014    -0.74400
O46         O  0.28157407  0.03864837  0.85362990    -0.74500
Ni47       Ni  0.24984770  0.48542381  0.83823378     1.25400
Ni48       Ni  0.24903659  0.04132253  0.83928964     1.25400
C49         C  0.29238663  0.01223964  0.85801261     0.87800
C50         C  0.20459787  0.01421854  0.82049576     0.87700
C51         C  0.29214368  0.51561695  0.81930131     0.87800
C52         C  0.20814749  0.51121041  0.85875980     0.87900
O53         O  0.04275707  0.22209641  0.67786814    -0.74400
O54         O  0.03051565  0.28602913  0.70675515    -0.74400
O55         O  0.03052913  0.22174723  0.70668198    -0.74500
O56         O  0.04251575  0.28585967  0.67786151    -0.74500
O57         O  0.49134779  0.28504788  0.67315729    -0.74400
O58         O  0.47929434  0.22159431  0.70213824    -0.74400
O59         O  0.47934731  0.28643780  0.70185161    -0.74400
O60         O  0.49151940  0.22163348  0.67332044    -0.74500
Ni61       Ni  0.03836498  0.25391989  0.69252112     1.25400
Ni62       Ni  0.48352941  0.25365938  0.68754478     1.25400
C63         C  0.01920991  0.21125796  0.67083422     0.87800
C64         C  0.00319220  0.29790721  0.70844556     0.87700
C65         C  0.00319162  0.21010070  0.70870813     0.87800
C66         C  0.01876917  0.29598668  0.67071149     0.87900
C67         C  0.04021306  0.03106683  0.60056594     0.02300
C68         C  0.03292750  0.03183737  0.58557576     0.02300
C69         C  0.03033182  0.50365153  0.57781565    -0.18200
C70         C  0.03355563  0.47447847  0.58469554     0.02300
C71         C  0.04072186  0.47366557  0.59975486     0.02300
C72         C  0.04482070  0.50196808  0.60737266    -0.18200
H73         H  0.04913009  0.50131092  0.61900348     0.04400
H74         H  0.02536748  0.50449267  0.56624499     0.04400
C75         C  0.00186839  0.22240540  0.50790306     0.02300
C76         C  0.00963712  0.22324667  0.52288965     0.02300
C77         C  0.01344429  0.25229122  0.52985841    -0.18200
C78         C  0.00946872  0.28074655  0.52241478     0.02300
C79         C  0.00141273  0.27991622  0.50745625     0.02300
C80         C  0.99775285  0.25085020  0.50046415    -0.18200
H81         H  0.99244684  0.25041874  0.48892107     0.04400
H82         H  0.01852312  0.25270968  0.54142311     0.04400
C83         C  0.99964166  0.00345441  0.76469754    -0.02400
C84         C  0.98242894  0.02938522  0.44484681     0.02300
C85         C  0.97473640  0.02975193  0.42982047     0.02300
C86         C  0.97075417  0.00106167  0.42245243    -0.18200
C87         C  0.97468525  0.47222746  0.42953894     0.02300
C88         C  0.98192495  0.47189680  0.44452899     0.02300
C89         C  0.98567562  0.00038816  0.45195281    -0.18200
H90         H  0.99068542  0.99996613  0.46352431     0.04400
H91         H  0.96610980  0.00112557  0.41084610     0.04400
O92         O  0.01211343  0.21757473  0.32526109    -0.74400
O93         O  0.00748529  0.28266425  0.35394295    -0.74400
O94         O  0.00768049  0.21914863  0.35464270    -0.74500
O95         O  0.01134565  0.28218926  0.32457768    -0.74500
O96         O  0.45923486  0.28215418  0.32336823    -0.74400
O97         O  0.45565517  0.21867022  0.35269010    -0.74400
O98         O  0.45540193  0.28237781  0.35263020    -0.74400
O99         O  0.46000913  0.21747547  0.32348206    -0.74500
Ni100      Ni  0.01152278  0.25040561  0.33958008     1.25400
Ni101      Ni  0.45575966  0.25015936  0.33790712     1.25400
C102        C  0.98681424  0.20586463  0.32015425     0.87800
C103        C  0.98083290  0.29320945  0.35810234     0.87700
C104        C  0.98089251  0.20843449  0.35853716     0.87800
C105        C  0.98567217  0.29379525  0.31963942     0.87900
C106        C  0.49791969  0.00027989  0.26382297    -0.02400
C107        C  0.99749018  0.47023615  0.27366619    -0.01200
C108        C  0.47094713  0.46361775  0.28226527    -0.09300
C109        C  0.46760158  0.43499489  0.28959468    -0.18100
C110        C  0.99085545  0.41138868  0.28872543     0.04300
C111        C  0.01804978  0.41808338  0.28045981     0.18500
C112        C  0.02084837  0.44661968  0.27292484    -0.19500
C113        C  0.04237691  0.39604765  0.27957162    -0.20800
C114        C  0.04051889  0.36763979  0.28693134    -0.19300
C115        C  0.01389169  0.36004134  0.29504709     0.19900
C116        C  0.98830987  0.38147127  0.29577229     0.02000
C117        C  0.46130102  0.37185696  0.30343774    -0.14100
C118        C  0.46024865  0.34284217  0.31051152    -0.11800
C119        C  0.98611677  0.32247776  0.31042308     0.01500
C120        C  0.01280978  0.33119120  0.30252857    -0.23900
H121        H  0.45209080  0.48057310  0.28297715     0.09500
H122        H  0.44649527  0.43203814  0.29587054     0.13100
H123        H  0.04122751  0.44934871  0.26611974     0.11800
H124        H  0.06324721  0.40098162  0.27326813     0.13000
H125        H  0.06000424  0.35139845  0.28618943     0.12100
H126        H  0.44059431  0.38625879  0.30416130     0.09100
H127        H  0.43931735  0.33681667  0.31654404     0.12400
H128        H  0.03285458  0.31555899  0.30226492     0.14300
C129        C  0.98863726  0.17689699  0.31137836    -0.01200
C130        C  0.99247954  0.17778856  0.29628044    -0.09300
C131        C  0.99531114  0.14992429  0.28824536    -0.18100
C132        C  0.99454091  0.12019308  0.29516983     0.04300
C133        C  0.49061382  0.11967214  0.31053990     0.18500
C134        C  0.48776462  0.14782477  0.31843371    -0.19500
C135        C  0.48953562  0.09105339  0.31796908    -0.20800
C136        C  0.49182349  0.06279933  0.31046506    -0.19300
C137        C  0.49535656  0.06232214  0.29531351     0.19900
C138        C  0.99720647  0.09099723  0.28746642     0.02000
C139        C  0.00169687  0.08911025  0.27227791    -0.14100
C140        C  0.00271799  0.06016905  0.26515480    -0.11800
C141        C  0.49882276  0.03157991  0.27269773     0.01500
C142        C  0.49667835  0.03322525  0.28800297    -0.23900
H143        H  0.99338537  0.20011558  0.29069027     0.09500
H144        H  0.99799751  0.15241299  0.27664280     0.13100
H145        H  0.48499419  0.14718376  0.33017175     0.11800
H146        H  0.48665661  0.09050188  0.32968844     0.13000
H147        H  0.49055003  0.04111044  0.31657054     0.12100
H148        H  0.00422343  0.10962200  0.26554836     0.09100
H149        H  0.00543332  0.06009004  0.25343021     0.12400
H150        H  0.49571031  0.01209141  0.29443649     0.14300
C151        C  0.97485988  0.44323241  0.42061500    -0.01200
C152        C  0.00265113  0.42621060  0.41903178    -0.09300
C153        C  0.00435523  0.40081559  0.40947645    -0.18100
C154        C  0.97804025  0.39152416  0.40117248     0.04300
C155        C  0.44938910  0.40789533  0.40341862     0.18500
C156        C  0.44816971  0.43379998  0.41291277    -0.19500
C157        C  0.42228880  0.39854277  0.39603102    -0.20800
C158        C  0.42311299  0.37357129  0.38626632    -0.19300
C159        C  0.45123053  0.35782475  0.38334650     0.19900
C160        C  0.97916583  0.36675287  0.39067870     0.02000
C161        C  0.00718295  0.35103735  0.38690764    -0.14100
C162        C  0.00740725  0.32737728  0.37641882    -0.11800
C163        C  0.97980059  0.31823971  0.36934676     0.01500
C164        C  0.45170020  0.33353179  0.37294485    -0.23900
H165        H  0.02345536  0.43318375  0.42494744     0.09500
H166        H  0.02662100  0.38899125  0.40883013     0.13100
H167        H  0.42654231  0.44685407  0.41424679     0.11800
H168        H  0.40028758  0.41066583  0.39780105     0.13000
H169        H  0.40170806  0.36693161  0.38073873     0.12100
H170        H  0.02948737  0.35687192  0.39165310     0.09100
H171        H  0.02951106  0.31618870  0.37383527     0.12400
H172        H  0.43022077  0.32693475  0.36746093     0.14300
C173        C  0.97862161  0.18357343  0.36973344    -0.01200
C174        C  0.45249288  0.16379565  0.36989789    -0.09300
C175        C  0.94978157  0.13990635  0.38016791    -0.18100
C176        C  0.97317645  0.13505354  0.39082349     0.04300
C177        C  0.99947424  0.15549053  0.39078771     0.18500
C178        C  0.00205116  0.17933773  0.38024960    -0.19500
C179        C  0.02319394  0.15175624  0.40116822    -0.20800
C180        C  0.02193950  0.12748954  0.41127175    -0.19300
C181        C  0.99685628  0.10641218  0.41130902     0.19900
C182        C  0.97175380  0.11028047  0.40129018     0.02000
C183        C  0.94665922  0.08874090  0.40199269    -0.14100
C184        C  0.44725345  0.06363589  0.41170533    -0.11800
C185        C  0.97265928  0.05907642  0.42110112     0.01500
C186        C  0.99716015  0.08092342  0.42103015    -0.23900
H187        H  0.43413859  0.16646117  0.36184962     0.09500
H188        H  0.42917490  0.12550802  0.37936461     0.13100
H189        H  0.02223664  0.19471275  0.38027918     0.11800
H190        H  0.04314134  0.16741568  0.40132464     0.13000
H191        H  0.04098272  0.12490878  0.41897917     0.12100
H192        H  0.42642458  0.09028232  0.39503633     0.09100
H193        H  0.42795822  0.04718255  0.41166483     0.12400
H194        H  0.01711416  0.07736904  0.42813711     0.14300
C195        C  0.98475235  0.44230304  0.45287665    -0.01200
C196        C  0.45993102  0.42099219  0.45323138    -0.09300
C197        C  0.46150338  0.39423273  0.46194557    -0.18100
C198        C  0.48817358  0.38797350  0.47063928     0.04300
C199        C  0.01361673  0.40937764  0.46991512     0.18500
C200        C  0.01160351  0.43626261  0.46115900    -0.19500
C201        C  0.04083850  0.40398657  0.47802037    -0.20800
C202        C  0.04336507  0.37780964  0.48694009    -0.19300
C203        C  0.01861621  0.35652866  0.48808518     0.19900
C204        C  0.49056336  0.36133813  0.48000984     0.02000
C205        C  0.46613302  0.33930767  0.48172054    -0.14100
C206        C  0.46970664  0.31337228  0.49080665    -0.11800
C207        C  0.99748902  0.30861347  0.49856666     0.01500
C208        C  0.02183656  0.33031134  0.49721501    -0.23900
H209        H  0.43889595  0.42544921  0.44696826     0.09500
H210        H  0.44140171  0.37904234  0.46168027     0.13100
H211        H  0.03091897  0.45271619  0.46081965     0.11800
H212        H  0.06034476  0.42015347  0.47745761     0.13000
H213        H  0.06479492  0.37426537  0.49304712     0.12100
H214        H  0.44398836  0.34138874  0.47619448     0.09100
H215        H  0.45062386  0.29680546  0.49178176     0.12400
H216        H  0.04349077  0.32646227  0.50312263     0.14300
C217        C  0.99907314  0.19261931  0.49948819    -0.01200
C218        C  0.02286558  0.16999098  0.49990999    -0.09300
C219        C  0.02120457  0.14302606  0.49127634    -0.18100
C220        C  0.49569887  0.13797029  0.48170717     0.04300
C221        C  0.47143236  0.16083241  0.48146971     0.18500
C222        C  0.47331961  0.18769365  0.49029688    -0.19500
C223        C  0.44551694  0.15693921  0.47232011    -0.20800
C224        C  0.44311608  0.13080395  0.46333909    -0.19300
C225        C  0.46665469  0.10795054  0.46320253     0.19900
C226        C  0.49339294  0.11122705  0.47233285     0.02000
C227        C  0.01664016  0.08761775  0.47162451    -0.14100
C228        C  0.01318710  0.06172923  0.46245823    -0.11800
C229        C  0.98660926  0.05837538  0.45365976     0.01500
C230        C  0.46346399  0.08167706  0.45405015    -0.23900
H231        H  0.04322602  0.17347402  0.50674512     0.09500
H232        H  0.04042416  0.12677157  0.49223795     0.13100
H233        H  0.45473880  0.20504593  0.48995079     0.11800
H234        H  0.42694015  0.17428055  0.47209548     0.13000
H235        H  0.42270664  0.12849595  0.45641124     0.12100
H236        H  0.03774148  0.08839793  0.47803418     0.09100
H237        H  0.03140696  0.04401994  0.46228800     0.12400
H238        H  0.44263242  0.07901790  0.44741974     0.14300
C239        C  0.02872174  0.44561195  0.57583410    -0.01200
C240        C  0.50270082  0.44331876  0.56660125    -0.09300
C241        C  0.49845842  0.41719326  0.55766206    -0.18100
C242        C  0.02027378  0.39221744  0.55764697     0.04300
C243        C  0.04653051  0.39451997  0.56713471     0.18500
C244        C  0.05050459  0.42101334  0.57607167    -0.19500
C245        C  0.06887828  0.37051556  0.56753604    -0.20800
C246        C  0.06596054  0.34436682  0.55860364    -0.19300
C247        C  0.04051407  0.34143849  0.54909937     0.19900
C248        C  0.01712936  0.36516552  0.54853198     0.02000
C249        C  0.49159065  0.36060381  0.53892935    -0.14100
C250        C  0.48934615  0.33357588  0.53037488    -0.11800
C251        C  0.01266397  0.31046253  0.53084821     0.01500
C252        C  0.03821750  0.31468623  0.54023982    -0.23900
H253        H  0.48545800  0.46196974  0.56628685     0.09500
H254        H  0.47797367  0.41739158  0.55082433     0.13100
H255        H  0.07093686  0.42280401  0.58302581     0.11800
H256        H  0.08887733  0.37204801  0.57476339     0.13000
H257        H  0.08374998  0.32624866  0.55915160     0.12100
H258        H  0.47268958  0.37721932  0.53793961     0.09100
H259        H  0.46890517  0.33047676  0.52355656     0.12400
H260        H  0.05631685  0.29684670  0.54073363     0.14300
C261        C  0.02754893  0.06148605  0.57760924    -0.01200
C262        C  0.49954301  0.06586569  0.56999366    -0.09300
C263        C  0.49501830  0.09229705  0.56134507    -0.18100
C264        C  0.01875706  0.11513693  0.55988801     0.04300
C265        C  0.04679576  0.11101518  0.56805676     0.18500
C266        C  0.05087737  0.08439031  0.57684743    -0.19500
C267        C  0.07085115  0.13313362  0.56715745    -0.20800
C268        C  0.06791877  0.15909639  0.55813035    -0.19300
C269        C  0.04092895  0.16347829  0.54972811     0.19900
C270        C  0.01588125  0.14163333  0.55048786     0.02000
C271        C  0.48924723  0.14710323  0.54165910    -0.14100
C272        C  0.48755717  0.17321462  0.53256025    -0.11800
C273        C  0.01228308  0.19457556  0.53189349     0.01500
C274        C  0.03886441  0.18962694  0.54052587    -0.23900
H275        H  0.48115542  0.04845396  0.57062683     0.09500
H276        H  0.47284803  0.09389502  0.55581224     0.13100
H277        H  0.07261560  0.08092160  0.58273944     0.11800
H278        H  0.09220311  0.13019901  0.57339139     0.13000
H279        H  0.08703291  0.17573513  0.55761765     0.12100
H280        H  0.46928959  0.13172630  0.54152730     0.09100
H281        H  0.46660185  0.17700531  0.52614803     0.12400
H282        H  0.05801466  0.20625811  0.54003757     0.14300
C283        C  0.02263100  0.32065273  0.65948515    -0.01200
C284        C  0.49707517  0.32916839  0.65077477    -0.09300
C285        C  0.49979974  0.35247971  0.64025280    -0.18100
C286        C  0.52836302  0.36844792  0.63807421     0.04300
C287        C  0.05423348  0.36012744  0.64703383     0.18500
C288        C  0.05127431  0.33619243  0.65750043    -0.19500
C289        C  0.08269381  0.37611608  0.64564491    -0.20800
C290        C  0.08577017  0.40071896  0.63579618    -0.19300
C291        C  0.06067634  0.40950630  0.62686565     0.19900
C292        C  0.53186940  0.39291915  0.62760070     0.02000
C293        C  0.50765559  0.40182155  0.61793311    -0.14100
C294        C  0.51127183  0.42718808  0.60855303    -0.11800
C295        C  0.03909975  0.44435188  0.60835394     0.01500
C296        C  0.06393058  0.43518028  0.61738393    -0.23900
H297        H  0.47461477  0.31776633  0.65208446     0.09500
H298        H  0.47886851  0.35778411  0.63419568     0.13100
H299        H  0.07116208  0.33004717  0.66426198     0.11800
H300        H  0.10254198  0.36994318  0.65241969     0.13000
H301        H  0.10789199  0.41305822  0.63520984     0.12100
H302        H  0.48548965  0.38989272  0.61742208     0.09100
H303        H  0.49177245  0.43408656  0.60171585     0.12400
H304        H  0.08556305  0.44844259  0.61718932     0.14300
C305        C  0.02403920  0.18623904  0.65981443    -0.01200
C306        C  0.05304135  0.17100971  0.65861504    -0.09300
C307        C  0.05750886  0.14670349  0.64861271    -0.18100
C308        C  0.53296723  0.13676988  0.63936257     0.04300
C309        C  0.50379598  0.15278753  0.64038552     0.18500
C310        C  0.49959514  0.17709352  0.65054981    -0.19500
C311        C  0.47882984  0.14427925  0.63135284    -0.20800
C312        C  0.48197665  0.11982326  0.62145709    -0.19300
C313        C  0.51009950  0.10309528  0.62040473     0.19900
C314        C  0.53611811  0.11135045  0.62927663     0.02000
C315        C  0.06384198  0.09331321  0.62786464    -0.14100
C316        C  0.06529715  0.06778016  0.61833237    -0.11800
C317        C  0.03949738  0.05970701  0.60974980     0.01500
C318        C  0.51207753  0.07763701  0.61074241    -0.23900
H319        H  0.07238778  0.17762123  0.66558649     0.14700
H320        H  0.08042082  0.13610632  0.64843407     0.13100
H321        H  0.47711225  0.18884919  0.65126659     0.11800
H322        H  0.45659423  0.15649173  0.63201912     0.13000
H323        H  0.46209856  0.11366861  0.61470675     0.12100
H324        H  0.08460217  0.09794654  0.63415895     0.09100
H325        H  0.08662460  0.05404455  0.61773389     0.12400
H326        H  0.49185941  0.07106826  0.60428892     0.14300
C327        C  0.00051677  0.47297945  0.75524321    -0.01200
C328        C  0.99886764  0.47291171  0.73992210    -0.09300
C329        C  0.99837394  0.44482726  0.73201759    -0.18100
C330        C  0.00063948  0.41542199  0.73903454     0.04300
C331        C  0.50486594  0.41534524  0.75433829     0.18500
C332        C  0.50436765  0.44363231  0.76220534    -0.19500
C333        C  0.50967603  0.38700976  0.76172239    -0.20800
C334        C  0.51067205  0.35869246  0.75417524    -0.19300
C335        C  0.50562255  0.35781807  0.73912478     0.19900
C336        C  0.99961837  0.38613734  0.73140047     0.02000
C337        C  0.99239795  0.38383347  0.71641896    -0.14100
C338        C  0.99226328  0.35482359  0.70933997    -0.11800
C339        C  0.99984743  0.32727547  0.71681523     0.01500
C340        C  0.50652599  0.32882583  0.73172029    -0.23900
H341        H  0.99795475  0.49439568  0.73376588     0.09500
H342        H  0.99697799  0.44689655  0.72034064     0.13100
H343        H  0.50664637  0.44291487  0.77395675     0.11800
H344        H  0.51315353  0.38678489  0.77340800     0.13000
H345        H  0.51499042  0.33727139  0.76018935     0.12100
H346        H  0.98638857  0.40400822  0.70992853     0.09100
H347        H  0.98713527  0.35399929  0.69779071     0.12400
H348        H  0.51225192  0.30746702  0.73754003     0.14300
C349        C  0.00021963  0.03419113  0.75533876    -0.01200
C350        C  0.47425848  0.04238288  0.74660286    -0.09300
C351        C  0.47270021  0.07117462  0.73923170    -0.18100
C352        C  0.49723878  0.09331140  0.74022841     0.04300
C353        C  0.02355276  0.08513245  0.74885346     0.18500
C354        C  0.02451969  0.05658152  0.75640504    -0.19500
C355        C  0.04900314  0.10561036  0.75004917    -0.20800
C356        C  0.04913019  0.13399101  0.74270437    -0.19300
C357        C  0.02353679  0.14301486  0.73419934     0.19900
C358        C  0.49691707  0.12315504  0.73299298     0.02000
C359        C  0.47136921  0.13416151  0.72459775    -0.14100
C360        C  0.47281865  0.16302014  0.71730017    -0.11800
C361        C  0.99974315  0.18180964  0.71805049     0.01500
C362        C  0.02475730  0.17172221  0.72673975    -0.23900
H363        H  0.45466337  0.02642650  0.74567171     0.09500
H364        H  0.45200226  0.07544721  0.73281133     0.13100
H365        H  0.04445434  0.05277422  0.76338323     0.11800
H366        H  0.06920749  0.09947536  0.75660610     0.13000
H367        H  0.06943391  0.14904312  0.74371268     0.12100
H368        H  0.45009308  0.12085703  0.72338251     0.09100
H369        H  0.45311308  0.17014354  0.71065157     0.12400
H370        H  0.04564564  0.18603884  0.72750913     0.14300
C371        C  0.46849122  0.00500317  0.77370065    -0.01200
C372        C  0.46102898  0.03222089  0.78175368    -0.09300
C373        C  0.43196179  0.03593855  0.78865252    -0.18100
C374        C  0.40880706  0.01234946  0.78792627     0.04300
C375        C  0.41631620  0.48459449  0.78016513     0.18500
C376        C  0.44516246  0.48154070  0.77294668    -0.19500
C377        C  0.39489988  0.45979755  0.77956492    -0.20800
C378        C  0.36637763  0.46170236  0.78677404    -0.19300
C379        C  0.35803905  0.48884194  0.79439632     0.19900
C380        C  0.37868459  0.01495238  0.79475318     0.02000
C381        C  0.36818512  0.04238301  0.80193418    -0.14100
C382        C  0.33928033  0.04310010  0.80915849    -0.11800
C383        C  0.31999015  0.51654055  0.80958481     0.01500
C384        C  0.32931576  0.48972770  0.80187741    -0.23900
H385        H  0.47777801  0.05119108  0.78247274     0.09500
H386        H  0.42837355  0.05746348  0.79458153     0.13100
H387        H  0.44851741  0.46065789  0.76652067     0.11800
H388        H  0.40048399  0.43847230  0.77368062     0.13000
H389        H  0.35067949  0.44179027  0.78635098     0.12100
H390        H  0.38191095  0.06355408  0.80223156     0.09100
H391        H  0.33262673  0.06422050  0.81494232     0.12400
H392        H  0.31444283  0.46915588  0.80194458     0.14300
C393        C  0.17505147  0.01426691  0.81221762    -0.01200
C394        C  0.14755718  0.52398232  0.81918486    -0.09300
C395        C  0.11848774  0.52108855  0.81232510    -0.18100
C396        C  0.11614660  0.00893629  0.79804860     0.04300
C397        C  0.14443157  0.00080178  0.79073229     0.18500
C398        C  0.17343360  0.00262747  0.79800166    -0.19500
C399        C  0.14355090  0.99111206  0.77618421    -0.20800
C400        C  0.11528370  0.98993788  0.76866648    -0.19300
C401        C  0.08701375  0.99693576  0.77570423     0.19900
C402        C  0.08689025  0.00532730  0.79062784     0.02000
C403        C  0.05750423  0.50919521  0.79749377    -0.14100
C404        C  0.02946634  0.50686722  0.78963361    -0.11800
C405        C  0.02956916  0.00191433  0.77446273     0.01500
C406        C  0.05887581  0.99587785  0.76781700    -0.23900
H407        H  0.14848799  0.53300708  0.83020955     0.09500
H408        H  0.09828769  0.52902747  0.81834327     0.13100
H409        H  0.19478442  0.99531281  0.79257316     0.11800
H410        H  0.16494856  0.98508057  0.77048067     0.13000
H411        H  0.11550229  0.98316024  0.75729432     0.12100
H412        H  0.05548253  0.51348033  0.80902809     0.09100
H413        H  0.00794352  0.50957531  0.79563816     0.12400
H414        H  0.05980111  0.99121259  0.75622248     0.14300
C415        C  0.31692443  0.01141418  0.86939451    -0.01200
C416        C  0.32574833  0.98289143  0.87575294    -0.09300
C417        C  0.34886643  0.48179335  0.88647014    -0.18100
C418        C  0.36426559  0.50934163  0.89112810     0.04300
C419        C  0.35545940  0.53820307  0.88454851     0.18500
C420        C  0.33174430  0.53904315  0.87396057    -0.19500
C421        C  0.37082406  0.56598383  0.88834344    -0.20800
C422        C  0.39558250  0.56557868  0.89816154    -0.19300
C423        C  0.40501157  0.53752000  0.90471595     0.19900
C424        C  0.38877659  0.50915707  0.90170084     0.02000
C425        C  0.39812135  0.48179768  0.90925902    -0.14100
C426        C  0.42371547  0.98224495  0.91868365    -0.11800
C427        C  0.44072882  0.00978800  0.92082098     0.01500
C428        C  0.43103231  0.53748701  0.91405227    -0.23900
H429        H  0.31472465  0.96118619  0.87243704     0.09500
H430        H  0.35459905  0.45891192  0.89065811     0.13100
H431        H  0.32526641  0.56124055  0.86905908     0.11800
H432        H  0.36416761  0.58807583  0.88340167     0.13000
H433        H  0.40758386  0.58733571  0.90056854     0.12100
H434        H  0.38627684  0.45967506  0.90806503     0.09100
H435        H  0.43091444  0.96073527  0.92399502     0.12400
H436        H  0.44411946  0.55888257  0.91590866     0.14300
C437        C  0.18350814  0.51023466  0.87006792    -0.01200
C438        C  0.17840780  0.48308801  0.87829020    -0.09300
C439        C  0.15454872  0.48200714  0.88870580    -0.18100
C440        C  0.13456824  0.00805557  0.89105085     0.04300
C441        C  0.13982506  0.03544283  0.88258455     0.18500
C442        C  0.16431417  0.03641531  0.87241737    -0.19500
C443        C  0.12022879  0.06156369  0.88407475    -0.20800
C444        C  0.09500603  0.06093240  0.89359988    -0.19300
C445        C  0.08908522  0.03437582  0.90206701     0.19900
C446        C  0.10911908  0.00774532  0.90117718     0.02000
C447        C  0.10250375  0.48192929  0.91033757    -0.14100
C448        C  0.07644044  0.48217933  0.91954018    -0.11800
C449        C  0.05627943  0.00808179  0.91994934     0.01500
C450        C  0.06291186  0.03419053  0.91129597    -0.23900
H451        H  0.19298076  0.46256121  0.87668609     0.09500
H452        H  0.15197205  0.46027114  0.89454266     0.13100
H453        H  0.16785802  0.05742579  0.86599101     0.11800
H454        H  0.12411137  0.08247161  0.87763145     0.13000
H455        H  0.07992506  0.08134511  0.89430291     0.12100
H456        H  0.11688327  0.46115723  0.91058305     0.09100
H457        H  0.07158422  0.46173505  0.92614574     0.12400
H458        H  0.04742320  0.05435821  0.91170010     0.14300
C459        C  0.46725108  0.99845927  0.25447709    -0.01200
C460        C  0.45982489  0.47049553  0.24700260    -0.09300
C461        C  0.43104898  0.46648552  0.23992404    -0.18100
C462        C  0.40840566  0.49068088  0.23967632     0.04300
C463        C  0.41627709  0.01946601  0.24645176     0.18500
C464        C  0.44453418  0.02265802  0.25411911    -0.19500
C465        C  0.39576474  0.04508082  0.24565722    -0.20800
C466        C  0.36753832  0.04272688  0.23823174    -0.19300
C467        C  0.35845238  0.01431989  0.23193435     0.19900
C468        C  0.37838331  0.48761527  0.23285799     0.02000
C469        C  0.36714587  0.45903225  0.22708913    -0.14100
C470        C  0.33802728  0.45745930  0.22012875    -0.11800
C471        C  0.31926895  0.98430133  0.21852323     0.01500
C472        C  0.32955634  0.01256212  0.22464839    -0.23900
H473        H  0.47629307  0.45115295  0.24694671     0.09500
H474        H  0.42733048  0.44430356  0.23457164     0.13100
H475        H  0.44784997  0.04426503  0.25997682     0.11800
H476        H  0.40178917  0.06728914  0.25065546     0.13000
H477        H  0.35247954  0.06316531  0.23760897     0.12100
H478        H  0.38030622  0.43750016  0.22785038     0.09100
H479        H  0.33068183  0.43527270  0.21553356     0.12400
H480        H  0.31517184  0.03341769  0.22361047     0.14300
C481        C  0.02811799  0.50050753  0.25428311    -0.01200
C482        C  0.02808062  0.49607360  0.23908124    -0.09300
C483        C  0.05609682  0.99352072  0.23126330    -0.18100
C484        C  0.08547495  0.99637791  0.23822827     0.04300
C485        C  0.08561879  0.00390796  0.25325771     0.18500
C486        C  0.05739043  0.00556817  0.26106890    -0.19500
C487        C  0.11398226  0.00944054  0.26046624    -0.20800
C488        C  0.14233613  0.00746223  0.25304536    -0.19300
C489        C  0.14313511  0.99874027  0.23836333     0.19900
C490        C  0.11469211  0.99243500  0.23081240     0.02000
C491        C  0.11679130  0.98173283  0.21627853    -0.14100
C492        C  0.14580229  0.47829136  0.20944899    -0.11800
C493        C  0.17354396  0.48571941  0.21674864     0.01500
C494        C  0.17219965  0.99604294  0.23118692    -0.23900
H495        H  0.00657562  0.49413137  0.23299640     0.09500
H496        H  0.05401601  0.98979301  0.21969628     0.13100
H497        H  0.05815093  0.00997274  0.27268953     0.11800
H498        H  0.11423173  0.01553376  0.27192102     0.13000
H499        H  0.16383490  0.01218214  0.25891105     0.12100
H500        H  0.09646628  0.97537508  0.20998690     0.09100
H501        H  0.14657055  0.47033046  0.19824422     0.12400
H502        H  0.19375773  0.00168286  0.23683867     0.14300
C503        C  0.44121025  0.00011533  0.95297170    -0.01200
C504        C  0.43537805  0.97343216  0.96135168    -0.09300
C505        C  0.40885261  0.97164538  0.97015851    -0.18100
C506        C  0.38731710  0.99684223  0.97095110     0.04300
C507        C  0.39335491  0.02386079  0.96232868     0.18500
C508        C  0.42008656  0.02522556  0.95345281    -0.19500
C509        C  0.37286828  0.04948410  0.96272815    -0.20800
C510        C  0.34641533  0.04893165  0.97153465    -0.19300
C511        C  0.33983431  0.02276685  0.98017675     0.19900
C512        C  0.36017806  0.99631223  0.98003879     0.02000
C513        C  0.35244696  0.97053321  0.98902924    -0.14100
C514        C  0.32570806  0.97106090  0.99773999    -0.11800
C515        C  0.30587063  0.99715723  0.99780742     0.01500
C516        C  0.31293147  0.02287501  0.98896156    -0.23900
H517        H  0.45155079  0.45384436  0.96108745     0.09500
H518        H  0.40605180  0.95030637  0.97626725     0.13100
H519        H  0.42486847  0.04612353  0.94712408     0.11800
H520        H  0.37736605  0.07013764  0.95619606     0.13000
H521        H  0.33100952  0.06915431  0.97160537     0.12100
H522        H  0.36644652  0.94954591  0.98955308     0.09100
H523        H  0.32021586  0.45076471  0.00432337     0.12400
H524        H  0.29741459  0.04303690  0.98897537     0.14300
C525        C  0.19028619  0.99746869  0.99833057    -0.01200
C526        C  0.16972539  0.47205485  0.99893418    -0.09300
C527        C  0.14324665  0.47110864  0.99005766    -0.18100
C528        C  0.13666694  0.99564913  0.98015574     0.04300
C529        C  0.15750849  0.02160240  0.97977222     0.18500
C530        C  0.18400032  0.02221372  0.98877852    -0.19500
C531        C  0.15191824  0.04674269  0.97035251    -0.20800
C532        C  0.12587552  0.04682970  0.96130683    -0.19300
C533        C  0.10494816  0.02166306  0.96138269     0.19900
C534        C  0.11016038  0.99551187  0.97068593     0.02000
C535        C  0.08849850  0.47050205  0.97013851    -0.14100
C536        C  0.06226351  0.47197394  0.96112973    -0.11800
C537        C  0.05692690  0.99813354  0.95231000     0.01500
C538        C  0.07850338  0.02274295  0.95235014    -0.23900
H539        H  0.17450495  0.45250750  0.00612443     0.09500
H540        H  0.12854254  0.45077308  0.99116196     0.13100
H541        H  0.19996986  0.04192968  0.98832515     0.11800
H542        H  0.16773906  0.06656413  0.97002519     0.13000
H543        H  0.12204526  0.06676314  0.95421303     0.12100
H544        H  0.09097295  0.44959548  0.97660193     0.09100
H545        H  0.04579811  0.45268374  0.96114536     0.12400
H546        H  0.07417980  0.04317939  0.94562235     0.14300
C547        C  0.31541654  0.47789048  0.15977194    -0.01200
C548        C  0.33249768  0.45018184  0.15775639    -0.09300
C549        C  0.35679446  0.44867942  0.14763178    -0.18100
C550        C  0.36475590  0.47498498  0.13903928     0.04300
C551        C  0.34697908  0.50291399  0.14093595     0.18500
C552        C  0.32277150  0.00417837  0.15128638    -0.19500
C553        C  0.35347469  0.02943830  0.13251169    -0.20800
C554        C  0.37748919  0.02896478  0.12229593    -0.19300
C555        C  0.39584460  0.50208298  0.12036935     0.19900
C556        C  0.38978267  0.47466117  0.12871693     0.02000
C557        C  0.40946982  0.44834397  0.12656825    -0.14100
C558        C  0.43450508  0.44954725  0.11685239    -0.11800
C559        C  0.44045861  0.47666789  0.10880379     0.01500
C560        C  0.42078578  0.00268989  0.11040210    -0.23900
H561        H  0.32732219  0.42954097  0.16417337     0.09500
H562        H  0.36879940  0.42653115  0.14679318     0.13100
H563        H  0.30952973  0.02568852  0.15267566     0.11800
H564        H  0.33992688  0.05075622  0.13385768     0.13000
H565        H  0.38201833  0.04993862  0.11599322     0.12100
H566        H  0.40667472  0.42672694  0.13246331     0.09100
H567        H  0.44971878  0.42931811  0.11577396     0.12400
H568        H  0.42576691  0.02387071  0.10431034     0.14300
C569        C  0.18036619  0.97836389  0.15937617    -0.01200
C570        C  0.16425807  0.45028955  0.15693387    -0.09300
C571        C  0.14009708  0.94868426  0.14675312    -0.18100
C572        C  0.13127502  0.97528172  0.13853029     0.04300
C573        C  0.14791003  0.00366910  0.14093174     0.18500
C574        C  0.17204798  0.00498818  0.15130842    -0.19500
C575        C  0.14026274  0.03064258  0.13302139    -0.20800
C576        C  0.11618715  0.03017876  0.12284527    -0.19300
C577        C  0.09902610  0.00278598  0.12039273     0.19900
C578        C  0.10636198  0.97485419  0.12815407     0.02000
C579        C  0.08798854  0.94792348  0.12539420    -0.14100
C580        C  0.06276426  0.44911791  0.11578204    -0.11800
C581        C  0.05544129  0.97678720  0.10840927     0.01500
C582        C  0.07395045  0.00338924  0.11050627    -0.23900
H583        H  0.17008309  0.42938889  0.16305832     0.09500
H584        H  0.12881961  0.92626471  0.14561307     0.13100
H585        H  0.18443281  0.02682567  0.15307108     0.11800
H586        H  0.15289790  0.05232763  0.13477182     0.13000
H587        H  0.11068591  0.05152781  0.11698156     0.12100
H588        H  0.09199290  0.92579389  0.13071231     0.09100
H589        H  0.04848803  0.42840728  0.11424881     0.12400
H590        H  0.06794753  0.02491918  0.10487687     0.14300
C591        C  0.43950680  0.98606661  0.07641632    -0.01200
C592        C  0.41942338  0.46025687  0.07641121    -0.09300
C593        C  0.39293649  0.45979775  0.06753442    -0.18100
C594        C  0.38578002  0.98531268  0.05827685     0.04300
C595        C  0.40599817  0.01176612  0.05858794     0.18500
C596        C  0.43260465  0.01183057  0.06755639    -0.19500
C597        C  0.39972731  0.03788563  0.04985202    -0.20800
C598        C  0.37380521  0.03832488  0.04071573    -0.19300
C599        C  0.35362546  0.01258442  0.04003227     0.19900
C600        C  0.35935755  0.98560173  0.04874780     0.02000
C601        C  0.33832551  0.46017439  0.04755323    -0.14100
C602        C  0.31223755  0.46192806  0.03847189    -0.11800
C603        C  0.30647525  0.98875206  0.03017697     0.01500
C604        C  0.32741820  0.01385661  0.03082741    -0.23900
H605        H  0.42467280  0.43996713  0.08306953     0.09500
H606        H  0.37872725  0.43901337  0.06810369     0.13100
H607        H  0.44820490  0.03186291  0.06758391     0.11800
H608        H  0.41499280  0.05814453  0.05008873     0.13000
H609        H  0.36951718  0.05895666  0.03412665     0.12100
H610        H  0.34115099  0.43870729  0.05357310     0.09100
H611        H  0.29619818  0.44230275  0.03801576     0.12400
H612        H  0.32274215  0.03475442  0.02446400     0.14300
C613        C  0.19095668  0.98991614  0.03100275    -0.01200
C614        C  0.18723761  0.46506486  0.04076434    -0.09300
C615        C  0.16105495  0.46336812  0.04977170    -0.18100
C616        C  0.13746882  0.98664474  0.04928832     0.04300
C617        C  0.14131489  0.01184267  0.03931198     0.18500
C618        C  0.16791499  0.01329076  0.03033358    -0.19500
C619        C  0.11872258  0.03557086  0.03844260    -0.20800
C620        C  0.09236149  0.03492305  0.04731984    -0.19300
C621        C  0.08788653  0.01047377  0.05725084     0.19900
C622        C  0.11030810  0.98589478  0.05835552     0.02000
C623        C  0.10440077  0.46152805  0.06840380    -0.14100
C624        C  0.07738626  0.46153457  0.07691582    -0.11800
C625        C  0.05559414  0.98595887  0.07593451     0.01500
C626        C  0.06094977  0.01033429  0.06603101    -0.23900
H627        H  0.20482845  0.44678575  0.04145162     0.09500
H628        H  0.16012931  0.44359228  0.05703087     0.13100
H629        H  0.17099368  0.03291637  0.02298190     0.11800
H630        H  0.12148858  0.05481423  0.03085725     0.13000
H631        H  0.07530569  0.05366326  0.04638829     0.12100
H632        H  0.11990899  0.44183969  0.06982823     0.09100
H633        H  0.07322871  0.44193427  0.08413812     0.12400
H634        H  0.04399915  0.02920230  0.06514416     0.14300
C635        C  0.02640071  0.97872814  0.09973838     0.02300
C636        C  0.02630785  0.48502510  0.08462577     0.02300
C637        C  0.49747452  0.48842320  0.07742385    -0.18200
C638        C  0.46896241  0.48517137  0.08489177     0.02300
C639        C  0.46930234  0.97878841  0.09997365     0.02300
C640        C  0.99799180  0.97559279  0.10716649    -0.18200
H641        H  0.49822649  0.97135668  0.11881109     0.04400
H642        H  0.99718013  0.49228488  0.06575953     0.04400
C643        C  0.21959555  0.49726093  0.00692596     0.02300
C644        C  0.21994674  0.49208459  0.02214327     0.02300
C645        C  0.24879130  0.48928039  0.02930735    -0.18200
C646        C  0.27714899  0.49140454  0.02173706     0.02300
C647        C  0.27683371  0.49688809  0.00658604     0.02300
C648        C  0.24806444  0.50007243  0.99940124    -0.18200
H649        H  0.24783548  0.50328402  0.98769059     0.04400
H650        H  0.24923576  0.48588583  0.04100584     0.04400
O651        O  0.21529703  0.50983560  0.20397279    -0.74400
O652        O  0.27949409  0.50602620  0.17486406    -0.74400
O653        O  0.21603891  0.50639546  0.17466820    -0.74500
O654        O  0.27953986  0.50916746  0.20420048    -0.74500
O655        O  0.27908752  0.95701802  0.20550801    -0.74400
O656        O  0.21605142  0.95421695  0.17589605    -0.74400
O657        O  0.27957272  0.95387559  0.17629377    -0.74400
O658        O  0.21450935  0.95756915  0.20501560    -0.74500
Ni659      Ni  0.24762407  0.50972015  0.18945655     1.25400
Ni660      Ni  0.24731949  0.95383082  0.19080308     1.25400
C661        C  0.20316242  0.98430696  0.20860933     0.87800
C662        C  0.29021040  0.97934346  0.17081061     0.87700
C663        C  0.20545509  0.47977603  0.17046873     0.87800
C664        C  0.29086060  0.48346532  0.20920577     0.87900
C665        C  0.02726130  0.50732333  0.92879925     0.02300
C666        C  0.02754957  0.50075592  0.94388186     0.02300
C667        C  0.99910946  0.49829852  0.95142594    -0.18200
C668        C  0.47036828  0.50229444  0.94431318     0.02300
C669        C  0.47008098  0.50889477  0.92927312     0.02300
C670        C  0.99846066  0.51166318  0.92172403    -0.18200
H671        H  0.99806197  0.51588811  0.91008405     0.04400
H672        H  0.99935959  0.49394913  0.96305629     0.04400
O673        O  0.28210118  0.98645181  0.85270588    -0.74400
O674        O  0.21703203  0.98794596  0.82399369    -0.74400
O675        O  0.28115689  0.98900180  0.82331275    -0.74500
O676        O  0.21883480  0.98558325  0.85338424    -0.74500
O677        O  0.21815976  0.53781693  0.85430005    -0.74400
O678        O  0.28051626  0.54120578  0.82429312    -0.74400
O679        O  0.21584417  0.54020882  0.82515741    -0.74400
O680        O  0.28157884  0.53866377  0.85362929    -0.74500
Ni681      Ni  0.24983947  0.98540787  0.83823683     1.25400
Ni682      Ni  0.24904315  0.54133835  0.83928796     1.25400
C683        C  0.29239175  0.51225479  0.85801154     0.87800
C684        C  0.20460728  0.51423508  0.82049230     0.87700
C685        C  0.29213528  0.01559814  0.81930292     0.87800
C686        C  0.20814197  0.01119919  0.85876328     0.87900
O687        O  0.04275825  0.72209559  0.67786804    -0.74400
O688        O  0.03052004  0.78602785  0.70675507    -0.74400
O689        O  0.03053109  0.72174657  0.70668206    -0.74500
O690        O  0.04251837  0.78585830  0.67786129    -0.74500
O691        O  0.49134994  0.78504756  0.67315806    -0.74400
O692        O  0.47929606  0.72159474  0.70213886    -0.74400
O693        O  0.47935124  0.78643747  0.70185241    -0.74400
O694        O  0.49152039  0.72163348  0.67332077    -0.74500
Ni695      Ni  0.03836754  0.75391870  0.69252104     1.25400
Ni696      Ni  0.48353160  0.75365929  0.68754541     1.25400
C697        C  0.01921081  0.71125817  0.67083405     0.87800
C698        C  0.00319697  0.79790627  0.70844594     0.87700
C699        C  0.00319319  0.71010134  0.70870883     0.87800
C700        C  0.01877131  0.79598580  0.67071175     0.87900
C701        C  0.04021617  0.53106919  0.60056558     0.02300
C702        C  0.03292972  0.53183876  0.58557551     0.02300
C703        C  0.03032633  0.00365065  0.57781577    -0.18200
C704        C  0.03354683  0.97447721  0.58469544     0.02300
C705        C  0.04071424  0.97366327  0.59975460     0.02300
C706        C  0.04481516  0.00196503  0.60737272    -0.18200
H707        H  0.04912466  0.00130679  0.61900353     0.04400
H708        H  0.02536238  0.00449261  0.56624508     0.04400
C709        C  0.00185916  0.72240544  0.50790312     0.02300
C710        C  0.00962535  0.72324761  0.52288987     0.02300
C711        C  0.01343068  0.75229294  0.52985823    -0.18200
C712        C  0.00945719  0.78074754  0.52241367     0.02300
C713        C  0.00140459  0.77991564  0.50745483     0.02300
C714        C  0.99774508  0.75084914  0.50046339    -0.18200
H715        H  0.99244113  0.75041613  0.48892010     0.04400
H716        H  0.01850754  0.75271266  0.54142311     0.04400
C717        C  0.99964860  0.50345592  0.76469756    -0.02400
C718        C  0.98241115  0.52938992  0.44484664     0.02300
C719        C  0.97470824  0.52975294  0.42982159     0.02300
C720        C  0.97071809  0.50106094  0.42245592    -0.18200
C721        C  0.97471657  0.97222679  0.42953403     0.02300
C722        C  0.98194829  0.97189173  0.44452468     0.02300
C723        C  0.98565945  0.50039544  0.45195450    -0.18200
H724        H  0.99067676  0.49997750  0.46352533     0.04400
H725        H  0.96606642  0.50112260  0.41085023     0.04400
O726        O  0.01210286  0.71756444  0.32526120    -0.74400
O727        O  0.00747865  0.78265891  0.35393944    -0.74400
O728        O  0.00766019  0.71914396  0.35464259    -0.74500
O729        O  0.01134679  0.78217971  0.32457469    -0.74500
O730        O  0.45923646  0.78215086  0.32336199    -0.74400
O731        O  0.45563530  0.71867626  0.35268805    -0.74400
O732        O  0.45539556  0.78238383  0.35262372    -0.74400
O733        O  0.45999886  0.71747190  0.32347981    -0.74500
Ni734      Ni  0.01151362  0.75039755  0.33957853     1.25400
Ni735      Ni  0.45575094  0.75016081  0.33790267     1.25400
C736        C  0.98680332  0.70585698  0.32015370     0.87800
C737        C  0.98082765  0.79321082  0.35809675     0.87700
C738        C  0.98086904  0.70843737  0.35853733     0.87800
C739        C  0.98567616  0.79378897  0.31963468     0.87900
C740        C  0.49792365  0.50027615  0.26382253    -0.02400
C741        C  0.99749071  0.97024038  0.27366735    -0.01200
C742        C  0.47094770  0.96361759  0.28226561    -0.09300
C743        C  0.46760484  0.93499341  0.28959420    -0.18100
C744        C  0.99086128  0.91138963  0.28872485     0.04300
C745        C  0.01805659  0.91808901  0.28046082     0.18500
C746        C  0.02085351  0.94662769  0.27292720    -0.19500
C747        C  0.04238602  0.89605548  0.27957292    -0.20800
C748        C  0.04052932  0.86764576  0.28693158    -0.19300
C749        C  0.01390115  0.86004284  0.29504590     0.19900
C750        C  0.98831713  0.88147036  0.29577033     0.02000
C751        C  0.46130698  0.87185192  0.30343349    -0.14100
C752        C  0.46025495  0.84283592  0.31050604    -0.11800
C753        C  0.98612463  0.82247333  0.31041895     0.01500
C754        C  0.01281981  0.83119088  0.30252660    -0.23900
H755        H  0.45208880  0.98057015  0.28297711     0.09500
H756        H  0.44649811  0.93203362  0.29586941     0.13100
H757        H  0.04123531  0.94936192  0.26612421     0.11800
H758        H  0.06325701  0.90099259  0.27327047     0.13000
H759        H  0.06001639  0.85140646  0.28618993     0.12100
H760        H  0.44059843  0.88625129  0.30415603     0.09100
H761        H  0.43932183  0.83680798  0.31653666     0.12400
H762        H  0.03286614  0.81556061  0.30226385     0.14300
C763        C  0.98862585  0.67688916  0.31137822    -0.01200
C764        C  0.99246777  0.67778106  0.29628036    -0.09300
C765        C  0.99530342  0.64991726  0.28824546    -0.18100
C766        C  0.99453771  0.62018618  0.29517008     0.04300
C767        C  0.49061117  0.61966476  0.31054019     0.18500
C768        C  0.48775800  0.64781711  0.31843386    -0.19500
C769        C  0.48953786  0.59104588  0.31796944    -0.20800
C770        C  0.49182987  0.56279213  0.31046541    -0.19300
C771        C  0.49536195  0.56231555  0.29531380     0.19900
C772        C  0.99720709  0.59099091  0.28746668     0.02000
C773        C  0.00169594  0.58910491  0.27227805    -0.14100
C774        C  0.00271877  0.56016423  0.26515474    -0.11800
C775        C  0.49882817  0.53157480  0.27269774     0.01500
C776        C  0.49668680  0.53321910  0.28800309    -0.23900
H777        H  0.99337106  0.70010813  0.29069012     0.09500
H778        H  0.99798964  0.65240640  0.27664293     0.13100
H779        H  0.48498876  0.64717607  0.33017196     0.11800
H780        H  0.48665942  0.59049399  0.32968882     0.13000
H781        H  0.49055996  0.54110300  0.31657088     0.12100
H782        H  0.00421899  0.60961698  0.26554843     0.09100
H783        H  0.00543129  0.56008578  0.25343001     0.12400
H784        H  0.49572271  0.51208483  0.29443648     0.14300
C785        C  0.97488719  0.94323445  0.42060857    -0.01200
C786        C  0.00267500  0.92620754  0.41902488    -0.09300
C787        C  0.00437372  0.90081375  0.40946871    -0.18100
C788        C  0.97805663  0.89152915  0.40116443     0.04300
C789        C  0.44940942  0.90790712  0.40341036     0.18500
C790        C  0.44819550  0.93381000  0.41290545    -0.19500
C791        C  0.42230743  0.89856281  0.39602185    -0.20800
C792        C  0.42312592  0.87359196  0.38625677    -0.19300
C793        C  0.45123934  0.85783745  0.38333779     0.19900
C794        C  0.97917632  0.86675781  0.39067073     0.02000
C795        C  0.00718930  0.85103394  0.38690090    -0.14100
C796        C  0.00740802  0.82737296  0.37641277    -0.11800
C797        C  0.97979972  0.81824295  0.36934002     0.01500
C798        C  0.45170333  0.83354369  0.37293654    -0.23900
H799        H  0.02348041  0.93317526  0.42494103     0.09500
H800        H  0.02663706  0.88898493  0.40882217     0.13100
H801        H  0.42657100  0.94686883  0.41423969     0.11800
H802        H  0.40030928  0.91069165  0.39779159     0.13000
H803        H  0.40171982  0.86695845  0.38072855     0.12100
H804        H  0.02949481  0.85686180  0.39164701     0.09100
H805        H  0.02950900  0.81617744  0.37383043     0.12400
H806        H  0.43022289  0.82695233  0.36745199     0.14300
C807        C  0.97859095  0.68358258  0.36973708    -0.01200
C808        C  0.45244488  0.66382736  0.36991237    -0.09300
C809        C  0.94973184  0.63994022  0.38018379    -0.18100
C810        C  0.97314308  0.63506593  0.39082955     0.04300
C811        C  0.99945556  0.65548397  0.39078458     0.18500
C812        C  0.00203324  0.67932936  0.38024562    -0.19500
C813        C  0.02319035  0.65173145  0.40115618    -0.20800
C814        C  0.02193656  0.62746392  0.41125917    -0.19300
C815        C  0.99684008  0.60640258  0.41130432     0.19900
C816        C  0.97172313  0.61028909  0.40129478     0.02000
C817        C  0.94661897  0.58876117  0.40200377    -0.14100
C818        C  0.44721623  0.56365075  0.41171389    -0.11800
C819        C  0.97263326  0.55907680  0.42110160     0.01500
C820        C  0.99714497  0.58091122  0.42102388    -0.23900
H821        H  0.43407831  0.66650788  0.36187125     0.09500
H822        H  0.42911083  0.62556007  0.37938937     0.13100
H823        H  0.02223145  0.69468768  0.38026784     0.11800
H824        H  0.04314903  0.66737680  0.40130574     0.13000
H825        H  0.04099134  0.62486875  0.41895939     0.12100
H826        H  0.42637517  0.59031515  0.39505373     0.09100
H827        H  0.42791361  0.54720608  0.41167845     0.12400
H828        H  0.01710742  0.57734465  0.42812447     0.14300
C829        C  0.98477394  0.94229569  0.45287032    -0.01200
C830        C  0.45995381  0.92098321  0.45322124    -0.09300
C831        C  0.46152306  0.89422279  0.46193477    -0.18100
C832        C  0.48818834  0.88796497  0.47063191     0.04300
C833        C  0.01363164  0.90936937  0.46991056     0.18500
C834        C  0.01162179  0.93625497  0.46115485    -0.19500
C835        C  0.04084955  0.90397860  0.47801863    -0.20800
C836        C  0.04337144  0.87780233  0.48693900    -0.19300
C837        C  0.01862128  0.85652241  0.48808217     0.19900
C838        C  0.49057259  0.86133131  0.48000363     0.02000
C839        C  0.46613997  0.83930297  0.48171302    -0.14100
C840        C  0.46970752  0.81337000  0.49080102    -0.11800
C841        C  0.99748609  0.80861146  0.49856399     0.01500
C842        C  0.02183582  0.83030712  0.49721354    -0.23900
H843        H  0.43892169  0.92544004  0.44695596     0.09500
H844        H  0.44142270  0.87903091  0.46166644     0.13100
H845        H  0.03093662  0.95270955  0.46081803     0.11800
H846        H  0.06035607  0.92014552  0.47745781     0.13000
H847        H  0.06479815  0.87425837  0.49304843     0.12100
H848        H  0.44399781  0.84138432  0.47618483     0.09100
H849        H  0.45062318  0.79680471  0.49177515     0.12400
H850        H  0.04348717  0.82645799  0.50312342     0.14300
C851        C  0.99906503  0.69261981  0.49948843    -0.01200
C852        C  0.02286358  0.66999771  0.49990561    -0.09300
C853        C  0.02120487  0.64303606  0.49126951    -0.18100
C854        C  0.49569390  0.63797695  0.48170363     0.04300
C855        C  0.47142023  0.66083180  0.48147210     0.18500
C856        C  0.47330663  0.68769065  0.49030067    -0.19500
C857        C  0.44549785  0.65693358  0.47232731    -0.20800
C858        C  0.44309605  0.63079943  0.46334579    -0.19300
C859        C  0.46664122  0.60795307  0.46320344     0.19900
C860        C  0.49338798  0.61123608  0.47232787     0.02000
C861        C  0.01664243  0.58763460  0.47161292    -0.14100
C862        C  0.01318559  0.56174447  0.46244778    -0.11800
C863        C  0.98659781  0.55838294  0.45365653     0.01500
C864        C  0.46344777  0.58167922  0.45405171    -0.23900
H865        H  0.04322672  0.67348387  0.50673869     0.09500
H866        H  0.04042921  0.62678602  0.49222708     0.13100
H867        H  0.45472140  0.70503859  0.48995850     0.11800
H868        H  0.42691560  0.67426935  0.47210737     0.13000
H869        H  0.42268031  0.62848646  0.45642231     0.12100
H870        H  0.03775163  0.58842193  0.47801682     0.09100
H871        H  0.03140949  0.54403955  0.46227310     0.12400
H872        H  0.44260963  0.57901434  0.44742623     0.14300
C873        C  0.02871115  0.94561152  0.57583362    -0.01200
C874        C  0.50269175  0.94332091  0.56659962    -0.09300
C875        C  0.49844969  0.91719670  0.55765947    -0.18100
C876        C  0.02026375  0.89221976  0.55764464     0.04300
C877        C  0.04651905  0.89452017  0.56713336     0.18500
C878        C  0.05049276  0.92101202  0.57607119    -0.19500
C879        C  0.06886614  0.87051525  0.56753481    -0.20800
C880        C  0.06594881  0.84436750  0.55860188    -0.19300
C881        C  0.04050317  0.84144049  0.54909710     0.19900
C882        C  0.01711944  0.86516846  0.54852921     0.02000
C883        C  0.49158168  0.86060777  0.53892593    -0.14100
C884        C  0.48933666  0.83357932  0.53037173    -0.11800
C885        C  0.01265300  0.81046457  0.53084616     0.01500
C886        C  0.03820621  0.81468802  0.54023784    -0.23900
H887        H  0.48545019  0.96197303  0.56628493     0.09500
H888        H  0.47796643  0.91739683  0.55082076     0.13100
H889        H  0.07092431  0.92280103  0.58302587     0.11800
H890        H  0.08886425  0.87204639  0.57476279     0.13000
H891        H  0.08373759  0.82624872  0.55915007     0.12100
H892        H  0.47268163  0.87722434  0.53793567     0.09100
H893        H  0.46889640  0.83048075  0.52355289     0.12400
H894        H  0.05630470  0.79684769  0.54073219     0.14300
C895        C  0.02754760  0.56148725  0.57760916    -0.01200
C896        C  0.49954099  0.56586494  0.56999385    -0.09300
C897        C  0.49501309  0.59229735  0.56134617    -0.18100
C898        C  0.01874935  0.61514002  0.55988968     0.04300
C899        C  0.04678798  0.61102078  0.56805873     0.18500
C900        C  0.05087286  0.58439489  0.57684837    -0.19500
C901        C  0.07084044  0.63314259  0.56716063    -0.20800
C902        C  0.06790595  0.65910559  0.55813388    -0.19300
C903        C  0.04091715  0.66348412  0.54973060     0.19900
C904        C  0.01587175  0.64163639  0.55048954     0.02000
C905        C  0.48923896  0.64710297  0.54165956    -0.14100
C906        C  0.48754830  0.67321334  0.53255998    -0.11800
C907        C  0.01227217  0.69457682  0.53189393     0.01500
C908        C  0.03885183  0.68963180  0.54052783    -0.23900
H909        H  0.48115535  0.54845110  0.57062661     0.09500
H910        H  0.47284249  0.59389408  0.55581351     0.13100
H911        H  0.07261135  0.58092821  0.58274041     0.11800
H912        H  0.09219204  0.63021015  0.57339506     0.13000
H913        H  0.08701812  0.67574669  0.55762194     0.12100
H914        H  0.46928307  0.63172377  0.54152716     0.09100
H915        H  0.46659391  0.67700140  0.52614678     0.12400
H916        H  0.05800045  0.70626493  0.54004020     0.14300
C917        C  0.02263187  0.82065182  0.65948534    -0.01200
C918        C  0.49707159  0.82917506  0.65077933    -0.09300
C919        C  0.49979430  0.85248616  0.64025726    -0.18100
C920        C  0.52836027  0.86844639  0.63807402     0.04300
C921        C  0.05423527  0.86011909  0.64702949     0.18500
C922        C  0.05127780  0.83618417  0.65749626    -0.19500
C923        C  0.08269831  0.87610124  0.64563638    -0.20800
C924        C  0.08577287  0.90070483  0.63578788    -0.19300
C925        C  0.06067463  0.90949841  0.62686131     0.19900
C926        C  0.53186499  0.89291679  0.62760007     0.02000
C927        C  0.50764716  0.90182329  0.61793544    -0.14100
C928        C  0.51126218  0.92718963  0.60855515    -0.11800
C929        C  0.03909247  0.94434930  0.60835325     0.01500
C930        C  0.06392724  0.93517295  0.61737984    -0.23900
H931        H  0.47460888  0.81777951  0.65209266     0.09500
H932        H  0.47885955  0.85779734  0.63420402     0.13100
H933        H  0.07116904  0.83003320  0.66425450     0.11800
H934        H  0.10254999  0.86992317  0.65240794     0.13000
H935        H  0.10789686  0.91303953  0.63519849     0.12100
H936        H  0.48547939  0.88989736  0.61742671     0.09100
H937        H  0.49176045  0.93409128  0.60172010     0.12400
H938        H  0.08556173  0.94843179  0.61718267     0.14300
C939        C  0.02404024  0.68624104  0.65981345    -0.01200
C940        C  0.05304352  0.67101435  0.65861281    -0.09300
C941        C  0.05751172  0.64670977  0.64860979    -0.18100
C942        C  0.53296960  0.63677489  0.63936029     0.04300
C943        C  0.50379729  0.65279035  0.64038426     0.18500
C944        C  0.49959587  0.67709511  0.65054912    -0.19500
C945        C  0.47883055  0.64428051  0.63135226    -0.20800
C946        C  0.48197738  0.61982412  0.62145672    -0.19300
C947        C  0.51010104  0.60309767  0.62040375     0.19900
C948        C  0.53612076  0.61135557  0.62927438     0.02000
C949        C  0.06384587  0.59332063  0.62786142    -0.14100
C950        C  0.06530091  0.56778641  0.61832989    -0.11800
C951        C  0.03949970  0.55970986  0.60974901     0.01500
C952        C  0.51207882  0.57763807  0.61074220    -0.23900
H953        H  0.07239038  0.67762660  0.66558386     0.14700
H954        H  0.08042450  0.63611446  0.64843034     0.13100
H955        H  0.47711221  0.68884905  0.65126678     0.11800
H956        H  0.45659423  0.65649151  0.63201918     0.13000
H957        H  0.46209860  0.61366768  0.61470716     0.12100
H958        H  0.08460730  0.59795665  0.63415440     0.09100
H959        H  0.08662944  0.55405262  0.61773062     0.12400
H960        H  0.49185993  0.57106704  0.60428974     0.14300
C961        C  0.00051260  0.97297803  0.75524327    -0.01200
C962        C  0.99887132  0.97291069  0.73992201    -0.09300
C963        C  0.99838248  0.94482651  0.73201732    -0.18100
C964        C  0.00064415  0.91542111  0.73903441     0.04300
C965        C  0.50486269  0.91534394  0.75433863     0.18500
C966        C  0.50436077  0.94363085  0.76220571    -0.19500
C967        C  0.50966792  0.88700818  0.76172318    -0.20800
C968        C  0.51066522  0.85869079  0.75417615    -0.19300
C969        C  0.50562268  0.85781682  0.73912517     0.19900
C970        C  0.99962555  0.88613671  0.73140015     0.02000
C971        C  0.99241362  0.88383377  0.71641774    -0.14100
C972        C  0.99227870  0.85482397  0.70933884    -0.11800
C973        C  0.99985393  0.82727490  0.71681517     0.01500
C974        C  0.50652549  0.82882435  0.73172090    -0.23900
H975        H  0.99796152  0.99439484  0.73376581     0.09500
H976        H  0.99699275  0.94689629  0.72034025     0.13100
H977        H  0.50663422  0.94291336  0.77395734     0.11800
H978        H  0.51313964  0.88678303  0.77340915     0.13000
H979        H  0.51497870  0.83726933  0.76019071     0.12100
H980        H  0.98641085  0.90400909  0.70992641     0.09100
H981        H  0.98715688  0.85400022  0.69778897     0.12400
H982        H  0.51224520  0.80746472  0.73754131     0.14300
C983        C  0.00022529  0.53419281  0.75533891    -0.01200
C984        C  0.47426218  0.54238569  0.74660447    -0.09300
C985        C  0.47270211  0.57117846  0.73923433    -0.18100
C986        C  0.49724082  0.59331508  0.74023056     0.04300
C987        C  0.02355653  0.58513518  0.74885424     0.18500
C988        C  0.02452523  0.55658330  0.75640487    -0.19500
C989        C  0.04900710  0.60561293  0.75004946    -0.20800
C990        C  0.04913312  0.63399391  0.74270503    -0.19300
C991        C  0.02353844  0.64301820  0.73420096     0.19900
C992        C  0.49691798  0.62315918  0.73299565     0.02000
C993        C  0.47136863  0.63416654  0.72460166    -0.14100
C994        C  0.47281812  0.66302446  0.71730351    -0.11800
C995        C  0.99974401  0.68181222  0.71805222     0.01500
C996        C  0.02475883  0.67172487  0.72674098    -0.23900
H997        H  0.45466671  0.52642959  0.74567391     0.09500
H998        H  0.45200274  0.57545189  0.73281506     0.13100
H999        H  0.04446111  0.55277558  0.76338224     0.11800
H1000       H  0.06921265  0.59947730  0.75660546     0.13000
H1001       H  0.06943728  0.64904565  0.74371262     0.12100
H1002       H  0.45009154  0.62086309  0.72338764     0.09100
H1003       H  0.45311162  0.67014842  0.71065564     0.12400
H1004       H  0.04564793  0.68604064  0.72750937     0.14300
C1005       C  0.46850008  0.50500605  0.77370182    -0.01200
C1006       C  0.46103975  0.53222499  0.78175441    -0.09300
C1007       C  0.43197263  0.53594546  0.78865288    -0.18100
C1008       C  0.40881651  0.51235785  0.78792690     0.04300
C1009       C  0.41630751  0.98458837  0.78016295     0.18500
C1010       C  0.44515393  0.98153740  0.77294421    -0.19500
C1011       C  0.39489196  0.95979076  0.77956166    -0.20800
C1012       C  0.36637017  0.96169230  0.78677151    -0.19300
C1013       C  0.35803119  0.98882920  0.79439579     0.19900
C1014       C  0.37869340  0.51496429  0.79475276     0.02000
C1015       C  0.36819400  0.54239762  0.80193166    -0.14100
C1016       C  0.33928858  0.54311767  0.80915546    -0.11800
C1017       C  0.31998233  0.01652251  0.80958660     0.01500
C1018       C  0.32930844  0.98971169  0.80187776    -0.23900
H1019       H  0.47778988  0.55119429  0.78247301     0.09500
H1020       H  0.42838539  0.55747132  0.79458130     0.13100
H1021       H  0.44850941  0.96065626  0.76651708     0.11800
H1022       H  0.40047647  0.93846733  0.77367601     0.13000
H1023       H  0.35067282  0.94177969  0.78634753     0.12100
H1024       H  0.38192049  0.56356838  0.80222782     0.09100
H1025       H  0.33263495  0.56423971  0.81493798     0.12400
H1026       H  0.31443611  0.96913944  0.80194413     0.14300
C1027       C  0.17506120  0.51428321  0.81221391    -0.01200
C1028       C  0.14754794  0.02396861  0.81918825    -0.09300
C1029       C  0.11847857  0.02107788  0.81232808    -0.18100
C1030       C  0.11615605  0.50894634  0.79804574     0.04300
C1031       C  0.14444131  0.50081544  0.79072885     0.18500
C1032       C  0.17344369  0.50264413  0.79799783    -0.19500
C1033       C  0.14356039  0.49112593  0.77618072    -0.20800
C1034       C  0.11529250  0.48994817  0.76866359    -0.19300
C1035       C  0.08702232  0.49694206  0.77570201     0.19900
C1036       C  0.08689948  0.50533334  0.79062566     0.02000
C1037       C  0.05749457  0.00919347  0.79749511    -0.14100
C1038       C  0.02945715  0.00686762  0.78963433    -0.11800
C1039       C  0.02957724  0.50191550  0.77446192     0.01500
C1040       C  0.05888349  0.49588088  0.76781546    -0.23900
H1041       H  0.14847906  0.03299362  0.83021289     0.09500
H1042       H  0.09827892  0.02901883  0.81834596     0.13100
H1043       H  0.19479487  0.49533151  0.79256905     0.11800
H1044       H  0.16495825  0.48509733  0.77047670     0.13000
H1045       H  0.11551077  0.48317092  0.75729137     0.12100
H1046       H  0.05547209  0.01348004  0.80902929     0.09100
H1047       H  0.00793395  0.00957831  0.79563831     0.12400
H1048       H  0.05980767  0.49121584  0.75622090     0.14300
C1049       C  0.31692772  0.51142792  0.86939445    -0.01200
C1050       C  0.32575750  0.48290276  0.87574882    -0.09300
C1051       C  0.34885771  0.98178447  0.88647415    -0.18100
C1052       C  0.36426303  0.00933278  0.89112771     0.04300
C1053       C  0.35546403  0.03819121  0.88454325     0.18500
C1054       C  0.33174846  0.03902904  0.87395565    -0.19500
C1055       C  0.37083580  0.06597110  0.88833319    -0.20800
C1056       C  0.39559366  0.06556770  0.89815153    -0.19300
C1057       C  0.40501478  0.03751217  0.90471122     0.19900
C1058       C  0.38877304  0.00915083  0.90170088     0.02000
C1059       C  0.39810981  0.98179550  0.90926433    -0.14100
C1060       C  0.42372799  0.48224558  0.91867780    -0.11800
C1061       C  0.44073461  0.50979102  0.92081972     0.01500
C1062       C  0.43103418  0.03748059  0.91404820    -0.23900
H1063       H  0.31473938  0.46119722  0.87242935     0.09500
H1064       H  0.35458555  0.95890482  0.89066564     0.13100
H1065       H  0.32527573  0.06122431  0.86905061     0.11800
H1066       H  0.36418509  0.08806070  0.88338747     0.13000
H1067       H  0.40760046  0.08732364  0.90055477     0.12100
H1068       H  0.38625959  0.95967499  0.90807413     0.09100
H1069       H  0.43093298  0.46073330  0.92398515     0.12400
H1070       H  0.44412630  0.05887452  0.91590105     0.14300
C1071       C  0.18350367  0.01022694  0.87007211    -0.01200
C1072       C  0.17839850  0.98308017  0.87829360    -0.09300
C1073       C  0.15454029  0.98200273  0.88870967    -0.18100
C1074       C  0.13457121  0.50805627  0.89104568     0.04300
C1075       C  0.13982318  0.53544319  0.88257839     0.18500
C1076       C  0.16431281  0.53641910  0.87241162    -0.19500
C1077       C  0.12022225  0.56156068  0.88406748    -0.20800
C1078       C  0.09500062  0.56092710  0.89359309    -0.19300
C1079       C  0.08908506  0.53437132  0.90206151     0.19900
C1080       C  0.10912216  0.50774326  0.90117210     0.02000
C1081       C  0.10249719  0.98193124  0.91034190    -0.14100
C1082       C  0.07643246  0.98218244  0.91954341    -0.11800
C1083       C  0.05628534  0.50807714  0.91994612     0.01500
C1084       C  0.06291369  0.53418482  0.91129148    -0.23900
H1085       H  0.19296674  0.96255043  0.87668838     0.09500
H1086       H  0.15195936  0.96026606  0.89454557     0.13100
H1087       H  0.16785295  0.55742918  0.86598451     0.11800
H1088       H  0.12410094  0.58246810  0.87762331     0.13000
H1089       H  0.07991659  0.58133762  0.89429562     0.12100
H1090       H  0.11687503  0.96115807  0.91058765     0.09100
H1091       H  0.07157355  0.96173767  0.92614822     0.12400
H1092       H  0.04742306  0.55435103  0.91169541     0.14300
C1093       C  0.46725572  0.49845708  0.25447653    -0.01200
C1094       C  0.45981373  0.97049307  0.24700818    -0.09300
C1095       C  0.43103757  0.96648422  0.23992966    -0.18100
C1096       C  0.40840094  0.99068551  0.23967632     0.04300
C1097       C  0.41627459  0.51945706  0.24645766     0.18500
C1098       C  0.44453241  0.52265003  0.25412434    -0.19500
C1099       C  0.39575425  0.54506637  0.24566974    -0.20800
C1100       C  0.36752747  0.54271172  0.23824461    -0.19300
C1101       C  0.35844946  0.51430883  0.23194075     0.19900
C1102       C  0.37837847  0.98762158  0.23285797     0.02000
C1103       C  0.36713329  0.95903577  0.22709545    -0.14100
C1104       C  0.33801457  0.95746372  0.22013515    -0.11800
C1105       C  0.31927427  0.48429343  0.21852294     0.01500
C1106       C  0.32955375  0.51255062  0.22465449    -0.23900
H1107       H  0.47627682  0.95114612  0.24695617     0.09500
H1108       H  0.42731380  0.94429839  0.23458152     0.13100
H1109       H  0.44784366  0.54425214  0.25998672     0.11800
H1110       H  0.40177273  0.56727126  0.25067283     0.13000
H1111       H  0.35246247  0.56314630  0.23762694     0.12100
H1112       H  0.38028743  0.93750074  0.22786184     0.09100
H1113       H  0.33066303  0.93527425  0.21554509     0.12400
H1114       H  0.31516320  0.53340313  0.22362137     0.14300
C1115       C  0.02811292  0.00051045  0.25428288    -0.01200
C1116       C  0.02807619  0.99605313  0.23908244    -0.09300
C1117       C  0.05610084  0.49354571  0.23126141    -0.18100
C1118       C  0.08547993  0.49638068  0.23822768     0.04300
C1119       C  0.08562539  0.50388452  0.25326003     0.18500
C1120       C  0.05739655  0.50554738  0.26107094    -0.19500
C1121       C  0.11399085  0.50938699  0.26047186    -0.20800
C1122       C  0.14234519  0.50740324  0.25305169    -0.19300
C1123       C  0.14314198  0.49871034  0.23836593     0.19900
C1124       C  0.11469649  0.49243908  0.23081074     0.02000
C1125       C  0.11679251  0.48177192  0.21627117    -0.14100
C1126       C  0.14580168  0.97825299  0.20945692    -0.11800
C1127       C  0.17354000  0.98571863  0.21675105     0.01500
C1128       C  0.17220681  0.49600937  0.23118985    -0.23900
H1129       H  0.00657193  0.99409367  0.23299836     0.09500
H1130       H  0.05401863  0.48983689  0.21969319     0.13100
H1131       H  0.05815697  0.50993609  0.27269288     0.11800
H1132       H  0.11424180  0.51545875  0.27192908     0.13000
H1133       H  0.16384569  0.51209769  0.25892045     0.12100
H1134       H  0.09646525  0.47544383  0.20997472     0.09100
H1135       H  0.14657250  0.97026446  0.19825643     0.12400
H1136       H  0.19376728  0.50162162  0.23684560     0.14300
C1137       C  0.44121796  0.50012848  0.95297055    -0.01200
C1138       C  0.43538212  0.47344420  0.96134907    -0.09300
C1139       C  0.40885676  0.47165910  0.97015590    -0.18100
C1140       C  0.38732504  0.49685896  0.97095005     0.04300
C1141       C  0.39336751  0.52387971  0.96232980     0.18500
C1142       C  0.42009883  0.52524245  0.95345351    -0.19500
C1143       C  0.37288586  0.54950689  0.96273191    -0.20800
C1144       C  0.34643320  0.54895584  0.97153873    -0.19300
C1145       C  0.33984692  0.52278819  0.98017815     0.19900
C1146       C  0.36018555  0.49632970  0.98003742     0.02000
C1147       C  0.35244887  0.47054724  0.98902471    -0.14100
C1148       C  0.32571030  0.47107585  0.99773560    -0.11800
C1149       C  0.30587819  0.49717604  0.99780597     0.01500
C1150       C  0.31294383  0.52289704  0.98896294    -0.23900
H1151       H  0.45154966  0.95383468  0.96109128     0.09500
H1152       H  0.40605335  0.45031903  0.97626355     0.13100
H1153       H  0.42488408  0.54614131  0.94712598     0.11800
H1154       H  0.37738739  0.57016238  0.95620172     0.13000
H1155       H  0.33103145  0.56918156  0.97161160     0.12100
H1156       H  0.36644346  0.44955633  0.98954585     0.09100
H1157       H  0.32021776  0.95075202  0.00433000     0.12400
H1158       H  0.29743058  0.54306170  0.98897889     0.14300
C1159       C  0.19029297  0.49748228  0.99832993    -0.01200
C1160       C  0.16971712  0.97204254  0.99893447    -0.09300
C1161       C  0.14323986  0.97109735  0.99005706    -0.18100
C1162       C  0.13667075  0.49566055  0.98015679     0.04300
C1163       C  0.15751094  0.52161496  0.97977293     0.18500
C1164       C  0.18400387  0.52222761  0.98877857    -0.19500
C1165       C  0.15191912  0.54675452  0.97035303    -0.20800
C1166       C  0.12587791  0.54683841  0.96130642    -0.19300
C1167       C  0.10495238  0.52167024  0.96138215     0.19900
C1168       C  0.11016388  0.49552150  0.97068702     0.02000
C1169       C  0.08849574  0.97049194  0.97013607    -0.14100
C1170       C  0.06225888  0.97196702  0.96112867    -0.11800
C1171       C  0.05693394  0.49813670  0.95230827     0.01500
C1172       C  0.07851005  0.52274641  0.95234786    -0.23900
H1173       H  0.17449427  0.95249538  0.00612516     0.09500
H1174       H  0.12853371  0.95076332  0.99116159     0.13100
H1175       H  0.19997214  0.54194457  0.98832496     0.11800
H1176       H  0.16773858  0.56657705  0.97002565     0.13000
H1177       H  0.12204752  0.56677059  0.95421187     0.12100
H1178       H  0.09097267  0.94958218  0.97659706     0.09100
H1179       H  0.04579431  0.95267610  0.96114301     0.12400
H1180       H  0.07418752  0.54318071  0.94561851     0.14300
C1181       C  0.31541052  0.97789111  0.15977384    -0.01200
C1182       C  0.33249924  0.95018540  0.15776379    -0.09300
C1183       C  0.35679612  0.94868035  0.14763950    -0.18100
C1184       C  0.36474986  0.97498000  0.13904161     0.04300
C1185       C  0.34696659  0.00290649  0.14093330     0.18500
C1186       C  0.32278407  0.50418289  0.15128909    -0.19500
C1187       C  0.35349371  0.52945159  0.13251938    -0.20800
C1188       C  0.37750861  0.52898141  0.12230386    -0.19300
C1189       C  0.39583078  0.00206858  0.12036597     0.19900
C1190       C  0.38977514  0.97465252  0.12871859     0.02000
C1191       C  0.40946629  0.94833695  0.12657378    -0.14100
C1192       C  0.43449998  0.94953679  0.11685710    -0.11800
C1193       C  0.44044874  0.97665235  0.10880406     0.01500
C1194       C  0.42080029  0.50270759  0.11040598    -0.23900
H1195       H  0.32732954  0.92954894  0.16418486     0.09500
H1196       H  0.36880716  0.92653462  0.14680553     0.13100
H1197       H  0.30954796  0.52569535  0.15268228     0.11800
H1198       H  0.33995070  0.55077146  0.13386916     0.13000
H1199       H  0.38204274  0.54995964  0.11600508     0.12100
H1200       H  0.40667547  0.92672380  0.13247232     0.09100
H1201       H  0.44971683  0.92930924  0.11578180     0.12400
H1202       H  0.42578549  0.52389215  0.10431774     0.14300
C1203       C  0.18037591  0.47836856  0.15937336    -0.01200
C1204       C  0.16423865  0.95028781  0.15694344    -0.09300
C1205       C  0.14011775  0.44868875  0.14674282    -0.18100
C1206       C  0.13128672  0.47529218  0.13852624     0.04300
C1207       C  0.14791249  0.50368243  0.14093419     0.18500
C1208       C  0.17204960  0.50499847  0.15131135    -0.19500
C1209       C  0.14025668  0.53066187  0.13302996    -0.20800
C1210       C  0.11618143  0.53020099  0.12285364    -0.19300
C1211       C  0.09902887  0.50280537  0.12039500     0.19900
C1212       C  0.10637339  0.47486781  0.12815014     0.02000
C1213       C  0.08800734  0.44793465  0.12538480    -0.14100
C1214       C  0.06274669  0.94910430  0.11579068    -0.11800
C1215       C  0.05545103  0.47680591  0.10840649     0.01500
C1216       C  0.07395278  0.50341113  0.11050883    -0.23900
H1217       H  0.17005683  0.92939193  0.16307281     0.09500
H1218       H  0.12884835  0.42626642  0.14559721     0.13100
H1219       H  0.18442687  0.52683836  0.15307912     0.11800
H1220       H  0.15288482  0.55234917  0.13478538     0.13000
H1221       H  0.11067345  0.55155447  0.11699476     0.12100
H1222       H  0.09201804  0.42580103  0.13069826     0.09100
H1223       H  0.04846509  0.92839597  0.11426154     0.12400
H1224       H  0.06794339  0.52494483  0.10488401     0.14300
C1225       C  0.43951266  0.48608879  0.07641696    -0.01200
C1226       C  0.41941712  0.96023506  0.07641091    -0.09300
C1227       C  0.39293101  0.95977533  0.06753364    -0.18100
C1228       C  0.38578453  0.48533583  0.05827824     0.04300
C1229       C  0.40600093  0.51179056  0.05859047     0.18500
C1230       C  0.43260825  0.51185446  0.06755847    -0.19500
C1231       C  0.39972788  0.53791160  0.04985586    -0.20800
C1232       C  0.37380625  0.53835044  0.04071922    -0.19300
C1233       C  0.35362951  0.51260781  0.04003385     0.19900
C1234       C  0.35936324  0.48562404  0.04874844     0.02000
C1235       C  0.33831632  0.96015451  0.04755472    -0.14100
C1236       C  0.31222678  0.96190962  0.03847445    -0.11800
C1237       C  0.30648411  0.48877156  0.03017542     0.01500
C1238       C  0.32742385  0.51387860  0.03082788    -0.23900
H1239       H  0.42466543  0.93994628  0.08307005     0.09500
H1240       H  0.37872147  0.93899119  0.06810315     0.13100
H1241       H  0.44820765  0.53188746  0.06758653     0.11800
H1242       H  0.41499160  0.55817179  0.05009367     0.13000
H1243       H  0.36951678  0.55898326  0.03413105     0.12100
H1244       H  0.34114001  0.93868850  0.05357559     0.09100
H1245       H  0.29618502  0.94228612  0.03801978     0.12400
H1246       H  0.32274628  0.53477722  0.02446527     0.14300
C1247       C  0.19096557  0.48993373  0.03100171    -0.01200
C1248       C  0.18723018  0.96504769  0.04076579    -0.09300
C1249       C  0.16104812  0.96335032  0.04977348    -0.18100
C1250       C  0.13747677  0.48666380  0.04928665     0.04300
C1251       C  0.14132466  0.51186236  0.03931084     0.18500
C1252       C  0.16792522  0.51330968  0.03033274    -0.19500
C1253       C  0.11873360  0.53559178  0.03844163    -0.20800
C1254       C  0.09237189  0.53494458  0.04731853    -0.19300
C1255       C  0.08789510  0.51049470  0.05724905     0.19900
C1256       C  0.11031547  0.48591449  0.05835348     0.02000
C1257       C  0.10439513  0.96150899  0.06840647    -0.14100
C1258       C  0.07738086  0.96151486  0.07691872    -0.11800
C1259       C  0.05560096  0.48597999  0.07593223     0.01500
C1260       C  0.06095790  0.51035586  0.06602907    -0.23900
H1261       H  0.20482189  0.94676946  0.04145323     0.09500
H1262       H  0.16012381  0.94357501  0.05703301     0.13100
H1263       H  0.17100523  0.53293557  0.02298133     0.11800
H1264       H  0.12150102  0.55483565  0.03085666     0.13000
H1265       H  0.07531713  0.55368574  0.04638712     0.12100
H1266       H  0.11990457  0.94182169  0.06983122     0.09100
H1267       H  0.07322459  0.94191532  0.08414165     0.12400
H1268       H  0.04400827  0.52922480  0.06514249     0.14300
C1269       C  0.52640956  0.47874743  0.09973643     0.02300
C1270       C  0.52630052  0.98500334  0.08462751     0.02300
C1271       C  0.99746804  0.98840002  0.07742476    -0.18200
C1272       C  0.96895513  0.98515032  0.08489208     0.02300
C1273       C  0.96931145  0.47880580  0.09997301     0.02300
C1274       C  0.49800161  0.47560948  0.10716509    -0.18200
H1275       H  0.99823762  0.47137052  0.11880946     0.04400
H1276       H  0.49717502  0.99225943  0.06576026     0.04400
C1277       C  0.71958779  0.99724541  0.00692715     0.02300
C1278       C  0.71993811  0.99206807  0.02214443     0.02300
C1279       C  0.74878245  0.98926286  0.02930865    -0.18200
C1280       C  0.77714042  0.99138581  0.02173852     0.02300
C1281       C  0.77682588  0.99686907  0.00658748     0.02300
C1282       C  0.74805697  0.00005531  0.99940264    -0.18200
H1283       H  0.74782841  0.00326708  0.98769200     0.04400
H1284       H  0.74922655  0.98586826  0.04100714     0.04400
O1285       O  0.71529078  0.00983716  0.20397421    -0.74400
O1286       O  0.77948507  0.00602830  0.17486392    -0.74400
O1287       O  0.71602950  0.00639454  0.17466936    -0.74500
O1288       O  0.77953342  0.00917250  0.20420020    -0.74500
O1289       O  0.77909317  0.45701274  0.20550638    -0.74400
O1290       O  0.71605706  0.45421786  0.17589421    -0.74400
O1291       O  0.77957830  0.45387327  0.17629182    -0.74400
O1292       O  0.71451440  0.45756767  0.20501429    -0.74500
Ni1293     Ni  0.74761611  0.00972222  0.18945701     1.25400
Ni1294     Ni  0.74732484  0.45382869  0.19080141     1.25400
C1295       C  0.70316771  0.48430586  0.20860782     0.87800
C1296       C  0.79021745  0.47934145  0.17080948     0.87700
C1297       C  0.70544699  0.97977407  0.17047058     0.87800
C1298       C  0.79085479  0.98347139  0.20920633     0.87900
C1299       C  0.52725475  0.00732781  0.92880201     0.02300
C1300       C  0.52754243  0.00075414  0.94388397     0.02300
C1301       C  0.49910226  0.99828993  0.95142746    -0.18200
C1302       C  0.97036101  0.00228511  0.94431462     0.02300
C1303       C  0.97007433  0.00889220  0.92927507     0.02300
C1304       C  0.49845447  0.01166815  0.92172678    -0.18200
H1305       H  0.49805651  0.01589761  0.91008714     0.04400
H1306       H  0.49935238  0.99393593  0.96305743     0.04400
O1307       O  0.78210819  0.48646744  0.85270346    -0.74400
O1308       O  0.71704148  0.48796244  0.82399010    -0.74400
O1309       O  0.78116532  0.48902034  0.82331048    -0.74500
O1310       O  0.71884227  0.48559575  0.85338047    -0.74500
O1311       O  0.71815533  0.03780449  0.85430265    -0.74400
O1312       O  0.78050762  0.04118737  0.82429408    -0.74400
O1313       O  0.71583574  0.04019243  0.82516013    -0.74400
O1314       O  0.78157407  0.03864838  0.85362989    -0.74500
Ni1315     Ni  0.74984771  0.48542382  0.83823378     1.25400
Ni1316     Ni  0.74903660  0.04132254  0.83928963     1.25400
C1317       C  0.79238664  0.01223966  0.85801260     0.87800
C1318       C  0.70459788  0.01421854  0.82049575     0.87700
C1319       C  0.79214367  0.51561697  0.81930130     0.87800
C1320       C  0.70814750  0.51121040  0.85875980     0.87900
O1321       O  0.54275709  0.22209642  0.67786813    -0.74400
O1322       O  0.53051567  0.28602913  0.70675515    -0.74400
O1323       O  0.53052917  0.22174722  0.70668197    -0.74500
O1324       O  0.54251577  0.28585967  0.67786151    -0.74500
O1325       O  0.99134777  0.28504787  0.67315729    -0.74400
O1326       O  0.97929431  0.22159432  0.70213824    -0.74400
O1327       O  0.97934729  0.28643782  0.70185161    -0.74400
O1328       O  0.99151938  0.22163347  0.67332045    -0.74500
Ni1329     Ni  0.53836501  0.25391989  0.69252112     1.25400
Ni1330     Ni  0.98352939  0.25365939  0.68754478     1.25400
C1331       C  0.51920993  0.21125797  0.67083421     0.87800
C1332       C  0.50319222  0.29790720  0.70844556     0.87700
C1333       C  0.50319165  0.21010069  0.70870813     0.87800
C1334       C  0.51876918  0.29598668  0.67071149     0.87900
C1335       C  0.54021302  0.03106682  0.60056593     0.02300
C1336       C  0.53292746  0.03183735  0.58557576     0.02300
C1337       C  0.53033180  0.50365153  0.57781565    -0.18200
C1338       C  0.53355562  0.47447848  0.58469554     0.02300
C1339       C  0.54072188  0.47366557  0.59975485     0.02300
C1340       C  0.54482072  0.50196808  0.60737266    -0.18200
H1341       H  0.54913011  0.50131092  0.61900348     0.04400
H1342       H  0.52536745  0.50449268  0.56624499     0.04400
C1343       C  0.50186840  0.22240541  0.50790307     0.02300
C1344       C  0.50963707  0.22324668  0.52288966     0.02300
C1345       C  0.51344422  0.25229122  0.52985842    -0.18200
C1346       C  0.50946869  0.28074655  0.52241478     0.02300
C1347       C  0.50141276  0.27991622  0.50745625     0.02300
C1348       C  0.49775289  0.25085020  0.50046415    -0.18200
H1349       H  0.49244692  0.25041874  0.48892107     0.04400
H1350       H  0.51852302  0.25270968  0.54142313     0.04400
C1351       C  0.49964166  0.00345441  0.76469754    -0.02400
C1352       C  0.48242897  0.02938522  0.44484681     0.02300
C1353       C  0.47473640  0.02975194  0.42982048     0.02300
C1354       C  0.47075414  0.00106168  0.42245244    -0.18200
C1355       C  0.47468522  0.47222746  0.42953895     0.02300
C1356       C  0.48192495  0.47189681  0.44452900     0.02300
C1357       C  0.48567564  0.00038817  0.45195281    -0.18200
H1358       H  0.49068546  0.99996613  0.46352431     0.04400
H1359       H  0.46610975  0.00112558  0.41084611     0.04400
O1360       O  0.51211342  0.21757475  0.32526109    -0.74400
O1361       O  0.50748526  0.28266428  0.35394295    -0.74400
O1362       O  0.50768049  0.21914865  0.35464271    -0.74500
O1363       O  0.51134563  0.28218928  0.32457769    -0.74500
O1364       O  0.95923488  0.28215419  0.32336823    -0.74400
O1365       O  0.95565517  0.21867021  0.35269009    -0.74400
O1366       O  0.95540196  0.28237781  0.35263019    -0.74400
O1367       O  0.96000914  0.21747548  0.32348206    -0.74500
Ni1368     Ni  0.51152277  0.25040562  0.33958009     1.25400
Ni1369     Ni  0.95575967  0.25015936  0.33790712     1.25400
C1370       C  0.48681424  0.20586464  0.32015426     0.87800
C1371       C  0.48083287  0.29320946  0.35810235     0.87700
C1372       C  0.48089251  0.20843451  0.35853717     0.87800
C1373       C  0.48567214  0.29379525  0.31963942     0.87900
C1374       C  0.99791968  0.00027989  0.26382296    -0.02400
C1375       C  0.49749015  0.47023617  0.27366619    -0.01200
C1376       C  0.97094716  0.46361774  0.28226526    -0.09300
C1377       C  0.96760161  0.43499489  0.28959467    -0.18100
C1378       C  0.49085543  0.41138868  0.28872544     0.04300
C1379       C  0.51804975  0.41808338  0.28045982     0.18500
C1380       C  0.52084834  0.44661969  0.27292484    -0.19500
C1381       C  0.54237687  0.39604765  0.27957162    -0.20800
C1382       C  0.54051885  0.36763979  0.28693134    -0.19300
C1383       C  0.51389166  0.36004134  0.29504709     0.19900
C1384       C  0.48830985  0.38147127  0.29577230     0.02000
C1385       C  0.96130106  0.37185694  0.30343774    -0.14100
C1386       C  0.96024868  0.34284217  0.31051152    -0.11800
C1387       C  0.48611674  0.32247776  0.31042308     0.01500
C1388       C  0.51280975  0.33119120  0.30252857    -0.23900
H1389       H  0.95209082  0.48057309  0.28297714     0.09500
H1390       H  0.94649530  0.43203814  0.29587052     0.13100
H1391       H  0.54122748  0.44934872  0.26611974     0.11800
H1392       H  0.56324717  0.40098161  0.27326813     0.13000
H1393       H  0.56000419  0.35139845  0.28618943     0.12100
H1394       H  0.94059435  0.38625877  0.30416130     0.09100
H1395       H  0.93931739  0.33681667  0.31654404     0.12400
H1396       H  0.53285455  0.31555899  0.30226492     0.14300
C1397       C  0.48863726  0.17689699  0.31137836    -0.01200
C1398       C  0.49247958  0.17778857  0.29628045    -0.09300
C1399       C  0.49531119  0.14992430  0.28824537    -0.18100
C1400       C  0.49454093  0.12019309  0.29516984     0.04300
C1401       C  0.99061383  0.11967214  0.31053990     0.18500
C1402       C  0.98776465  0.14782477  0.31843370    -0.19500
C1403       C  0.98953565  0.09105339  0.31796908    -0.20800
C1404       C  0.99182350  0.06279933  0.31046506    -0.19300
C1405       C  0.99535654  0.06232213  0.29531350     0.19900
C1406       C  0.49720649  0.09099723  0.28746643     0.02000
C1407       C  0.50169691  0.08911024  0.27227792    -0.14100
C1408       C  0.50271802  0.06016905  0.26515481    -0.11800
C1409       C  0.99882274  0.03157992  0.27269772     0.01500
C1410       C  0.99667833  0.03322525  0.28800296    -0.23900
H1411       H  0.49338543  0.20011559  0.29069028     0.09500
H1412       H  0.49799759  0.15241300  0.27664282     0.13100
H1413       H  0.98499424  0.14718376  0.33017175     0.11800
H1414       H  0.98665666  0.09050187  0.32968843     0.13000
H1415       H  0.99055005  0.04111044  0.31657053     0.12100
H1416       H  0.50422348  0.10962200  0.26554836     0.09100
H1417       H  0.50543335  0.06009004  0.25343022     0.12400
H1418       H  0.99571030  0.01209140  0.29443648     0.14300
C1419       C  0.47485984  0.44323240  0.42061501    -0.01200
C1420       C  0.50265108  0.42621058  0.41903179    -0.09300
C1421       C  0.50435516  0.40081560  0.40947647    -0.18100
C1422       C  0.47804020  0.39152417  0.40117249     0.04300
C1423       C  0.94938914  0.40789531  0.40341862     0.18500
C1424       C  0.94816975  0.43379996  0.41291277    -0.19500
C1425       C  0.92228885  0.39854273  0.39603103    -0.20800
C1426       C  0.92311304  0.37357125  0.38626633    -0.19300
C1427       C  0.95123058  0.35782472  0.38334650     0.19900
C1428       C  0.47916579  0.36675288  0.39067871     0.02000
C1429       C  0.50718287  0.35103733  0.38690765    -0.14100
C1430       C  0.50740719  0.32737727  0.37641884    -0.11800
C1431       C  0.47980055  0.31823973  0.36934677     0.01500
C1432       C  0.95170025  0.33353176  0.37294485    -0.23900
H1433       H  0.52345531  0.43318373  0.42494746     0.09500
H1434       H  0.52662092  0.38899125  0.40883016     0.13100
H1435       H  0.92654235  0.44685403  0.41424678     0.11800
H1436       H  0.90028764  0.41066578  0.39780107     0.13000
H1437       H  0.90170811  0.36693155  0.38073875     0.12100
H1438       H  0.52948729  0.35687186  0.39165312     0.09100
H1439       H  0.52951100  0.31618867  0.37383529     0.12400
H1440       H  0.93022081  0.32693471  0.36746094     0.14300
C1441       C  0.47862161  0.18357345  0.36973345    -0.01200
C1442       C  0.95249286  0.16379565  0.36989789    -0.09300
C1443       C  0.44978159  0.13990635  0.38016791    -0.18100
C1444       C  0.47317646  0.13505356  0.39082350     0.04300
C1445       C  0.49947424  0.15549056  0.39078772     0.18500
C1446       C  0.50205115  0.17933777  0.38024962    -0.19500
C1447       C  0.52319393  0.15175629  0.40116825    -0.20800
C1448       C  0.52193948  0.12748957  0.41127177    -0.19300
C1449       C  0.49685628  0.10641220  0.41130904     0.19900
C1450       C  0.47175380  0.11028049  0.40129019     0.02000
C1451       C  0.44665923  0.08874091  0.40199269    -0.14100
C1452       C  0.94725345  0.06363587  0.41170532    -0.11800
C1453       C  0.47265928  0.05907644  0.42110113     0.01500
C1454       C  0.49716014  0.08092343  0.42103016    -0.23900
H1455       H  0.93413856  0.16646119  0.36184962     0.09500
H1456       H  0.92917487  0.12550804  0.37936461     0.13100
H1457       H  0.52223663  0.19471280  0.38027921     0.11800
H1458       H  0.54314132  0.16741574  0.40132467     0.13000
H1459       H  0.54098269  0.12490882  0.41897920     0.12100
H1460       H  0.92642458  0.09028230  0.39503632     0.09100
H1461       H  0.92795821  0.04718254  0.41166483     0.12400
H1462       H  0.51711415  0.07736906  0.42813712     0.14300
C1463       C  0.48475237  0.44230306  0.45287666    -0.01200
C1464       C  0.95993098  0.42099219  0.45323138    -0.09300
C1465       C  0.96150333  0.39423272  0.46194557    -0.18100
C1466       C  0.98817355  0.38797348  0.47063926     0.04300
C1467       C  0.51361675  0.40937767  0.46991514     0.18500
C1468       C  0.51160352  0.43626265  0.46115902    -0.19500
C1469       C  0.54083853  0.40398661  0.47802039    -0.20800
C1470       C  0.54336510  0.37780966  0.48694010    -0.19300
C1471       C  0.51861625  0.35652867  0.48808519     0.19900
C1472       C  0.99056332  0.36133811  0.48000983     0.02000
C1473       C  0.96613298  0.33930764  0.48172051    -0.14100
C1474       C  0.96970660  0.31337225  0.49080664    -0.11800
C1475       C  0.49748907  0.30861348  0.49856666     0.01500
C1476       C  0.52183661  0.33031135  0.49721501    -0.23900
H1477       H  0.93889590  0.42544923  0.44696826     0.09500
H1478       H  0.94140165  0.37904235  0.46168028     0.13100
H1479       H  0.53091897  0.45271624  0.46081967     0.11800
H1480       H  0.56034479  0.42015353  0.47745763     0.13000
H1481       H  0.56479496  0.37426540  0.49304712     0.12100
H1482       H  0.94398834  0.34138869  0.47619444     0.09100
H1483       H  0.95062383  0.29680543  0.49178174     0.12400
H1484       H  0.54349082  0.32646226  0.50312263     0.14300
C1485       C  0.49907315  0.19261930  0.49948819    -0.01200
C1486       C  0.52286561  0.16999098  0.49990999    -0.09300
C1487       C  0.52120459  0.14302607  0.49127634    -0.18100
C1488       C  0.99569886  0.13797030  0.48170715     0.04300
C1489       C  0.97143236  0.16083242  0.48146969     0.18500
C1490       C  0.97331960  0.18769367  0.49029687    -0.19500
C1491       C  0.94551694  0.15693925  0.47232008    -0.20800
C1492       C  0.94311610  0.13080398  0.46333907    -0.19300
C1493       C  0.96665468  0.10795055  0.46320250     0.19900
C1494       C  0.99339292  0.11122706  0.47233283     0.02000
C1495       C  0.51664018  0.08761774  0.47162452    -0.14100
C1496       C  0.51318712  0.06172923  0.46245823    -0.11800
C1497       C  0.48660929  0.05837537  0.45365977     0.01500
C1498       C  0.96346398  0.08167707  0.45405014    -0.23900
H1499       H  0.54322605  0.17347404  0.50674512     0.09500
H1500       H  0.54042418  0.12677158  0.49223795     0.13100
H1501       H  0.95473879  0.20504595  0.48995078     0.11800
H1502       H  0.92694017  0.17428063  0.47209546     0.13000
H1503       H  0.92270667  0.12849602  0.45641121     0.12100
H1504       H  0.53774150  0.08839792  0.47803420     0.09100
H1505       H  0.53140698  0.04401994  0.46228799     0.12400
H1506       H  0.94263241  0.07901792  0.44741973     0.14300
C1507       C  0.52872173  0.44561195  0.57583410    -0.01200
C1508       C  0.00270083  0.44331875  0.56660125    -0.09300
C1509       C  0.99845844  0.41719325  0.55766207    -0.18100
C1510       C  0.52027377  0.39221745  0.55764697     0.04300
C1511       C  0.54653049  0.39451997  0.56713471     0.18500
C1512       C  0.55050458  0.42101334  0.57607167    -0.19500
C1513       C  0.56887826  0.37051556  0.56753604    -0.20800
C1514       C  0.56596051  0.34436682  0.55860364    -0.19300
C1515       C  0.54051404  0.34143850  0.54909937     0.19900
C1516       C  0.51712933  0.36516553  0.54853198     0.02000
C1517       C  0.99159068  0.36060380  0.53892935    -0.14100
C1518       C  0.98934618  0.33357588  0.53037488    -0.11800
C1519       C  0.51266393  0.31046253  0.53084821     0.01500
C1520       C  0.53821747  0.31468623  0.54023982    -0.23900
H1521       H  0.98545801  0.46196974  0.56628686     0.09500
H1522       H  0.97797369  0.41739158  0.55082433     0.13100
H1523       H  0.57093685  0.42280400  0.58302581     0.11800
H1524       H  0.58887731  0.37204801  0.57476338     0.13000
H1525       H  0.58374995  0.32624866  0.55915159     0.12100
H1526       H  0.97268962  0.37721932  0.53793961     0.09100
H1527       H  0.96890521  0.33047676  0.52355656     0.12400
H1528       H  0.55631681  0.29684670  0.54073364     0.14300
C1529       C  0.52754888  0.06148603  0.57760924    -0.01200
C1530       C  0.99954306  0.06586571  0.56999366    -0.09300
C1531       C  0.99501838  0.09229705  0.56134508    -0.18100
C1532       C  0.51875701  0.11513693  0.55988802     0.04300
C1533       C  0.54679569  0.11101518  0.56805676     0.18500
C1534       C  0.55087731  0.08439030  0.57684744    -0.19500
C1535       C  0.57085106  0.13313363  0.56715745    -0.20800
C1536       C  0.56791869  0.15909639  0.55813036    -0.19300
C1537       C  0.54092887  0.16347829  0.54972812     0.19900
C1538       C  0.51588119  0.14163333  0.55048787     0.02000
C1539       C  0.98924732  0.14710324  0.54165910    -0.14100
C1540       C  0.98755724  0.17321461  0.53256024    -0.11800
C1541       C  0.51228302  0.19457558  0.53189349     0.01500
C1542       C  0.53886433  0.18962695  0.54052588    -0.23900
H1543       H  0.98115547  0.04845398  0.57062684     0.09500
H1544       H  0.97284810  0.09389502  0.55581226     0.13100
H1545       H  0.57261553  0.08092161  0.58273944     0.11800
H1546       H  0.59220302  0.13019902  0.57339140     0.13000
H1547       H  0.58703282  0.17573513  0.55761766     0.12100
H1548       H  0.96928968  0.13172633  0.54152729     0.09100
H1549       H  0.96660192  0.17700531  0.52614802     0.12400
H1550       H  0.55801459  0.20625810  0.54003758     0.14300
C1551       C  0.52263101  0.32065274  0.65948515    -0.01200
C1552       C  0.99707516  0.32916839  0.65077478    -0.09300
C1553       C  0.99979971  0.35247971  0.64025280    -0.18100
C1554       C  0.02836300  0.36844791  0.63807421     0.04300
C1555       C  0.55423349  0.36012746  0.64703384     0.18500
C1556       C  0.55127432  0.33619245  0.65750043    -0.19500
C1557       C  0.58269382  0.37611611  0.64564492    -0.20800
C1558       C  0.58577018  0.40071899  0.63579620    -0.19300
C1559       C  0.56067636  0.40950632  0.62686566     0.19900
C1560       C  0.03186938  0.39291914  0.62760070     0.02000
C1561       C  0.00765556  0.40182155  0.61793311    -0.14100
C1562       C  0.01127180  0.42718809  0.60855303    -0.11800
C1563       C  0.53909977  0.44435188  0.60835394     0.01500
C1564       C  0.56393060  0.43518030  0.61738394    -0.23900
H1565       H  0.97461475  0.31776635  0.65208447     0.09500
H1566       H  0.97886848  0.35778412  0.63419568     0.13100
H1567       H  0.57116208  0.33004719  0.66426199     0.11800
H1568       H  0.60254199  0.36994321  0.65241971     0.13000
H1569       H  0.60789201  0.41305825  0.63520987     0.12100
H1570       H  0.98548961  0.38989273  0.61742209     0.09100
H1571       H  0.99177241  0.43408657  0.60171586     0.12400
H1572       H  0.58556307  0.44844261  0.61718933     0.14300
C1573       C  0.52403921  0.18623905  0.65981442    -0.01200
C1574       C  0.55304134  0.17100971  0.65861503    -0.09300
C1575       C  0.55750883  0.14670349  0.64861271    -0.18100
C1576       C  0.03296723  0.13676989  0.63936257     0.04300
C1577       C  0.00379598  0.15278753  0.64038554     0.18500
C1578       C  0.99959514  0.17709350  0.65054982    -0.19500
C1579       C  0.97882987  0.14427923  0.63135285    -0.20800
C1580       C  0.98197668  0.11982325  0.62145709    -0.19300
C1581       C  0.01009953  0.10309529  0.62040473     0.19900
C1582       C  0.03611813  0.11135047  0.62927663     0.02000
C1583       C  0.56384193  0.09331320  0.62786463    -0.14100
C1584       C  0.56529711  0.06778016  0.61833237    -0.11800
C1585       C  0.53949734  0.05970701  0.60974980     0.01500
C1586       C  0.01207757  0.07763702  0.61074241    -0.23900
H1587       H  0.57238777  0.17762123  0.66558648     0.14700
H1588       H  0.58042078  0.13610631  0.64843407     0.13100
H1589       H  0.97711225  0.18884914  0.65126661     0.11800
H1590       H  0.95659426  0.15649168  0.63201912     0.13000
H1591       H  0.96209860  0.11366859  0.61470674     0.12100
H1592       H  0.58460213  0.09794652  0.63415893     0.09100
H1593       H  0.58662456  0.05404454  0.61773389     0.12400
H1594       H  0.99185945  0.07106828  0.60428891     0.14300
C1595       C  0.50051679  0.47297946  0.75524320    -0.01200
C1596       C  0.49886768  0.47291171  0.73992210    -0.09300
C1597       C  0.49837397  0.44482725  0.73201758    -0.18100
C1598       C  0.50063948  0.41542199  0.73903454     0.04300
C1599       C  0.00486596  0.41534524  0.75433829     0.18500
C1600       C  0.00436766  0.44363230  0.76220534    -0.19500
C1601       C  0.00967609  0.38700977  0.76172239    -0.20800
C1602       C  0.01067212  0.35869247  0.75417524    -0.19300
C1603       C  0.00562258  0.35781807  0.73912478     0.19900
C1604       C  0.49961837  0.38613734  0.73140046     0.02000
C1605       C  0.49239799  0.38383347  0.71641896    -0.14100
C1606       C  0.49226333  0.35482358  0.70933996    -0.11800
C1607       C  0.49984745  0.32727547  0.71681523     0.01500
C1608       C  0.00652602  0.32882584  0.73172028    -0.23900
H1609       H  0.49795481  0.49439568  0.73376587     0.09500
H1610       H  0.49697803  0.44689655  0.72034064     0.13100
H1611       H  0.00664639  0.44291487  0.77395676     0.11800
H1612       H  0.01315361  0.38678490  0.77340799     0.13000
H1613       H  0.01499051  0.33727140  0.76018934     0.12100
H1614       H  0.48638864  0.40400822  0.70992851     0.09100
H1615       H  0.48713535  0.35399929  0.69779070     0.12400
H1616       H  0.01225198  0.30746703  0.73754002     0.14300
C1617       C  0.50021963  0.03419114  0.75533876    -0.01200
C1618       C  0.97425847  0.04238287  0.74660287    -0.09300
C1619       C  0.97270019  0.07117462  0.73923170    -0.18100
C1620       C  0.99723876  0.09331139  0.74022840     0.04300
C1621       C  0.52355276  0.08513247  0.74885348     0.18500
C1622       C  0.52451968  0.05658153  0.75640505    -0.19500
C1623       C  0.54900312  0.10561039  0.75004920    -0.20800
C1624       C  0.54913019  0.13399104  0.74270440    -0.19300
C1625       C  0.52353680  0.14301487  0.73419935     0.19900
C1626       C  0.99691705  0.12315505  0.73299298     0.02000
C1627       C  0.97136918  0.13416152  0.72459776    -0.14100
C1628       C  0.97281860  0.16302015  0.71730018    -0.11800
C1629       C  0.49974319  0.18180964  0.71805049     0.01500
C1630       C  0.52475732  0.17172222  0.72673976    -0.23900
H1631       H  0.95466335  0.02642650  0.74567172     0.09500
H1632       H  0.95200223  0.07544721  0.73281134     0.13100
H1633       H  0.54445433  0.05277424  0.76338326     0.11800
H1634       H  0.56920746  0.09947541  0.75660613     0.13000
H1635       H  0.56943390  0.14904316  0.74371271     0.12100
H1636       H  0.95009304  0.12085705  0.72338252     0.09100
H1637       H  0.95311302  0.17014356  0.71065159     0.12400
H1638       H  0.54564566  0.18603886  0.72750914     0.14300
C1639       C  0.96849122  0.00500317  0.77370065    -0.01200
C1640       C  0.96102899  0.03222089  0.78175368    -0.09300
C1641       C  0.93196180  0.03593855  0.78865253    -0.18100
C1642       C  0.90880708  0.01234946  0.78792627     0.04300
C1643       C  0.91631618  0.48459449  0.78016513     0.18500
C1644       C  0.94516244  0.48154070  0.77294669    -0.19500
C1645       C  0.89489985  0.45979756  0.77956491    -0.20800
C1646       C  0.86637760  0.46170237  0.78677403    -0.19300
C1647       C  0.85803902  0.48884196  0.79439631     0.19900
C1648       C  0.87868461  0.01495238  0.79475318     0.02000
C1649       C  0.86818513  0.04238301  0.80193418    -0.14100
C1650       C  0.83928034  0.04310011  0.80915849    -0.11800
C1651       C  0.81999013  0.51654058  0.80958479     0.01500
C1652       C  0.82931573  0.48972772  0.80187740    -0.23900
H1653       H  0.97777802  0.05119108  0.78247274     0.09500
H1654       H  0.92837356  0.05746348  0.79458153     0.13100
H1655       H  0.94851740  0.46065788  0.76652068     0.11800
H1656       H  0.90048396  0.43847230  0.77368062     0.13000
H1657       H  0.85067945  0.44179029  0.78635096     0.12100
H1658       H  0.88191097  0.06355408  0.80223156     0.09100
H1659       H  0.83262674  0.06422051  0.81494231     0.12400
H1660       H  0.81444280  0.46915590  0.80194457     0.14300
C1661       C  0.67505147  0.01426690  0.81221762    -0.01200
C1662       C  0.64755719  0.52398231  0.81918485    -0.09300
C1663       C  0.61848775  0.52108855  0.81232510    -0.18100
C1664       C  0.61614660  0.00893630  0.79804860     0.04300
C1665       C  0.64443157  0.00080178  0.79073228     0.18500
C1666       C  0.67343360  0.00262747  0.79800165    -0.19500
C1667       C  0.64355090  0.99111206  0.77618420    -0.20800
C1668       C  0.61528370  0.98993788  0.76866648    -0.19300
C1669       C  0.58701374  0.99693577  0.77570423     0.19900
C1670       C  0.58689025  0.00532730  0.79062783     0.02000
C1671       C  0.55750424  0.50919521  0.79749376    -0.14100
C1672       C  0.52946635  0.50686722  0.78963361    -0.11800
C1673       C  0.52956915  0.00191432  0.77446274     0.01500
C1674       C  0.55887581  0.99587786  0.76781700    -0.23900
H1675       H  0.64848800  0.53300708  0.83020954     0.09500
H1676       H  0.59828770  0.52902747  0.81834326     0.13100
H1677       H  0.69478442  0.99531281  0.79257315     0.11800
H1678       H  0.66494856  0.98508057  0.77048066     0.13000
H1679       H  0.61550228  0.98316024  0.75729431     0.12100
H1680       H  0.55548255  0.51348033  0.80902808     0.09100
H1681       H  0.50794353  0.50957531  0.79563816     0.12400
H1682       H  0.55980110  0.99121260  0.75622248     0.14300
C1683       C  0.81692443  0.01141420  0.86939450    -0.01200
C1684       C  0.82574833  0.98289145  0.87575293    -0.09300
C1685       C  0.84886645  0.48179335  0.88647014    -0.18100
C1686       C  0.86426556  0.50934166  0.89112811     0.04300
C1687       C  0.85545936  0.53820310  0.88454852     0.18500
C1688       C  0.83174427  0.53904318  0.87396058    -0.19500
C1689       C  0.87082399  0.56598386  0.88834347    -0.20800
C1690       C  0.89558243  0.56557870  0.89816157    -0.19300
C1691       C  0.90501152  0.53752003  0.90471596     0.19900
C1692       C  0.88877656  0.50915710  0.90170084     0.02000
C1693       C  0.89812132  0.48179769  0.90925902    -0.14100
C1694       C  0.92371547  0.98224499  0.91868365    -0.11800
C1695       C  0.94072880  0.00978805  0.92082098     0.01500
C1696       C  0.93103227  0.53748704  0.91405228    -0.23900
H1697       H  0.81472466  0.96118621  0.87243703     0.09500
H1698       H  0.85459909  0.45891192  0.89065810     0.13100
H1699       H  0.82526638  0.56124059  0.86905909     0.11800
H1700       H  0.86416753  0.58807586  0.88340170     0.13000
H1701       H  0.90758376  0.58733574  0.90056858     0.12100
H1702       H  0.88627681  0.45967507  0.90806502     0.09100
H1703       H  0.93091445  0.96073530  0.92399501     0.12400
H1704       H  0.94411939  0.55888260  0.91590868     0.14300
C1705       C  0.68350816  0.51023463  0.87006791    -0.01200
C1706       C  0.67840782  0.48308797  0.87829019    -0.09300
C1707       C  0.65454873  0.48200707  0.88870579    -0.18100
C1708       C  0.63456824  0.00805552  0.89105083     0.04300
C1709       C  0.63982504  0.03544277  0.88258453     0.18500
C1710       C  0.66431415  0.03641526  0.87241734    -0.19500
C1711       C  0.62022876  0.06156360  0.88407473    -0.20800
C1712       C  0.59500600  0.06093231  0.89359986    -0.19300
C1713       C  0.58908522  0.03437574  0.90206699     0.19900
C1714       C  0.60911909  0.00774525  0.90117716     0.02000
C1715       C  0.60250378  0.48192920  0.91033756    -0.14100
C1716       C  0.57644046  0.48217925  0.91954018    -0.11800
C1717       C  0.55627944  0.00808171  0.91994933     0.01500
C1718       C  0.56291186  0.03419044  0.91129595    -0.23900
H1719       H  0.69298078  0.46256117  0.87668608     0.09500
H1720       H  0.65197205  0.46027107  0.89454265     0.13100
H1721       H  0.66785798  0.05742574  0.86599098     0.11800
H1722       H  0.62411130  0.08247152  0.87763142     0.13000
H1723       H  0.57992501  0.08134502  0.89430289     0.12100
H1724       H  0.61688331  0.46115714  0.91058304     0.09100
H1725       H  0.57158425  0.46173497  0.92614574     0.12400
H1726       H  0.54742320  0.05435813  0.91170009     0.14300
C1727       C  0.96725107  0.99845928  0.25447708    -0.01200
C1728       C  0.95982491  0.47049553  0.24700259    -0.09300
C1729       C  0.93104900  0.46648552  0.23992404    -0.18100
C1730       C  0.90840568  0.49068089  0.23967632     0.04300
C1731       C  0.91627706  0.01946601  0.24645176     0.18500
C1732       C  0.94453416  0.02265802  0.25411911    -0.19500
C1733       C  0.89576471  0.04508082  0.24565723    -0.20800
C1734       C  0.86753829  0.04272687  0.23823175    -0.19300
C1735       C  0.85845235  0.01431989  0.23193436     0.19900
C1736       C  0.87838332  0.48761528  0.23285799     0.02000
C1737       C  0.86714590  0.45903225  0.22708913    -0.14100
C1738       C  0.83802729  0.45745932  0.22012874    -0.11800
C1739       C  0.81926892  0.98430132  0.21852324     0.01500
C1740       C  0.82955630  0.01256211  0.22464840    -0.23900
H1741       H  0.97629308  0.45115294  0.24694670     0.09500
H1742       H  0.92733049  0.44430355  0.23457164     0.13100
H1743       H  0.94784994  0.04426503  0.25997683     0.11800
H1744       H  0.90178914  0.06728913  0.25065547     0.13000
H1745       H  0.85247951  0.06316530  0.23760899     0.12100
H1746       H  0.88030625  0.43750017  0.22785037     0.09100
H1747       H  0.83068185  0.43527271  0.21553355     0.12400
H1748       H  0.81517181  0.03341768  0.22361048     0.14300
C1749       C  0.52811797  0.50050753  0.25428311    -0.01200
C1750       C  0.52808060  0.49607359  0.23908125    -0.09300
C1751       C  0.55609683  0.99352070  0.23126331    -0.18100
C1752       C  0.58547497  0.99637790  0.23822829     0.04300
C1753       C  0.58561880  0.00390794  0.25325773     0.18500
C1754       C  0.55739044  0.00556815  0.26106892    -0.19500
C1755       C  0.61398227  0.00944054  0.26046625    -0.20800
C1756       C  0.64233613  0.00746223  0.25304536    -0.19300
C1757       C  0.64313512  0.99874027  0.23836333     0.19900
C1758       C  0.61469212  0.99243499  0.23081241     0.02000
C1759       C  0.61679128  0.98173281  0.21627854    -0.14100
C1760       C  0.64580229  0.47829137  0.20944900    -0.11800
C1761       C  0.67354395  0.48571942  0.21674865     0.01500
C1762       C  0.67219965  0.99604295  0.23118693    -0.23900
H1763       H  0.50657560  0.49413136  0.23299640     0.09500
H1764       H  0.55401603  0.98979299  0.21969628     0.13100
H1765       H  0.55815095  0.00997272  0.27268954     0.11800
H1766       H  0.61423174  0.01553375  0.27192103     0.13000
H1767       H  0.66383489  0.01218215  0.25891105     0.12100
H1768       H  0.59646626  0.97537506  0.20998691     0.09100
H1769       H  0.64657055  0.47033046  0.19824424     0.12400
H1770       H  0.69375773  0.00168288  0.23683868     0.14300
C1771       C  0.94121022  0.00011536  0.95297170    -0.01200
C1772       C  0.93537803  0.97343218  0.96135168    -0.09300
C1773       C  0.90885257  0.97164537  0.97015852    -0.18100
C1774       C  0.88731705  0.99684224  0.97095109     0.04300
C1775       C  0.89335486  0.02386079  0.96232867     0.18500
C1776       C  0.92008651  0.02522558  0.95345281    -0.19500
C1777       C  0.87286822  0.04948408  0.96272815    -0.20800
C1778       C  0.84641527  0.04893162  0.97153465    -0.19300
C1779       C  0.83983426  0.02276683  0.98017674     0.19900
C1780       C  0.86017802  0.99631222  0.98003878     0.02000
C1781       C  0.85244694  0.97053317  0.98902923    -0.14100
C1782       C  0.82570803  0.97106087  0.99773999    -0.11800
C1783       C  0.80587058  0.99715721  0.99780742     0.01500
C1784       C  0.81293142  0.02287499  0.98896157    -0.23900
H1785       H  0.95155074  0.45384435  0.96108743     0.09500
H1786       H  0.90605175  0.95030636  0.97626726     0.13100
H1787       H  0.92486841  0.04612355  0.94712408     0.11800
H1788       H  0.87736597  0.07013762  0.95619606     0.13000
H1789       H  0.83100945  0.06915427  0.97160537     0.12100
H1790       H  0.86644651  0.94954587  0.98955306     0.09100
H1791       H  0.82021587  0.45076474  0.00432339     0.12400
H1792       H  0.79741455  0.04303688  0.98897537     0.14300
C1793       C  0.69028617  0.99746867  0.99833058    -0.01200
C1794       C  0.66972542  0.47205482  0.99893418    -0.09300
C1795       C  0.64324667  0.47110859  0.99005764    -0.18100
C1796       C  0.63666693  0.99564910  0.98015575     0.04300
C1797       C  0.65750848  0.02160238  0.97977223     0.18500
C1798       C  0.68400030  0.02221370  0.98877853    -0.19500
C1799       C  0.65191822  0.04674265  0.97035252    -0.20800
C1800       C  0.62587552  0.04682965  0.96130683    -0.19300
C1801       C  0.60494816  0.02166301  0.96138269     0.19900
C1802       C  0.61016037  0.99551184  0.97068594     0.02000
C1803       C  0.58849850  0.47050201  0.97013853    -0.14100
C1804       C  0.56226350  0.47197392  0.96112974    -0.11800
C1805       C  0.55692692  0.99813347  0.95230999     0.01500
C1806       C  0.57850339  0.02274289  0.95235013    -0.23900
H1807       H  0.67450498  0.45250746  0.00612442     0.09500
H1808       H  0.62854257  0.45077301  0.99116194     0.13100
H1809       H  0.69996984  0.04192965  0.98832515     0.11800
H1810       H  0.66773904  0.06656409  0.97002520     0.13000
H1811       H  0.62204525  0.06676309  0.95421303     0.12100
H1812       H  0.59097294  0.44959546  0.97660197     0.09100
H1813       H  0.54579809  0.45268372  0.96114539     0.12400
H1814       H  0.57417982  0.04317932  0.94562234     0.14300
C1815       C  0.81541653  0.47789046  0.15977194    -0.01200
C1816       C  0.83249768  0.45018182  0.15775640    -0.09300
C1817       C  0.85679447  0.44867940  0.14763178    -0.18100
C1818       C  0.86475589  0.47498496  0.13903928     0.04300
C1819       C  0.84697906  0.50291396  0.14093594     0.18500
C1820       C  0.82277146  0.00417835  0.15128637    -0.19500
C1821       C  0.85347465  0.02943828  0.13251168    -0.20800
C1822       C  0.87748915  0.02896476  0.12229592    -0.19300
C1823       C  0.89584457  0.50208293  0.12036934     0.19900
C1824       C  0.88978266  0.47466114  0.12871693     0.02000
C1825       C  0.90946983  0.44834395  0.12656827    -0.14100
C1826       C  0.93450510  0.44954724  0.11685240    -0.11800
C1827       C  0.94045861  0.47666786  0.10880378     0.01500
C1828       C  0.92078575  0.00268987  0.11040210    -0.23900
H1829       H  0.82732220  0.42954095  0.16417339     0.09500
H1830       H  0.86879942  0.42653113  0.14679319     0.13100
H1831       H  0.80952970  0.02568851  0.15267565     0.11800
H1832       H  0.83992683  0.05075620  0.13385766     0.13000
H1833       H  0.88201828  0.04993859  0.11599320     0.12100
H1834       H  0.90667475  0.42672693  0.13246334     0.09100
H1835       H  0.94971881  0.42931810  0.11577398     0.12400
H1836       H  0.92576687  0.02387068  0.10431033     0.14300
C1837       C  0.68036617  0.97836388  0.15937617    -0.01200
C1838       C  0.66425802  0.45028956  0.15693390    -0.09300
C1839       C  0.64009708  0.94868427  0.14675313    -0.18100
C1840       C  0.63127501  0.97528170  0.13853030     0.04300
C1841       C  0.64791002  0.00366908  0.14093174     0.18500
C1842       C  0.67204797  0.00498817  0.15130842    -0.19500
C1843       C  0.64026275  0.03064258  0.13302138    -0.20800
C1844       C  0.61618717  0.03017876  0.12284527    -0.19300
C1845       C  0.59902611  0.00278598  0.12039273     0.19900
C1846       C  0.60636196  0.97485418  0.12815408     0.02000
C1847       C  0.58798849  0.94792351  0.12539422    -0.14100
C1848       C  0.56276428  0.44911792  0.11578205    -0.11800
C1849       C  0.55544128  0.97678720  0.10840928     0.01500
C1850       C  0.57395046  0.00338924  0.11050627    -0.23900
H1851       H  0.67008302  0.42938892  0.16305837     0.09500
H1852       H  0.62881962  0.92626472  0.14561308     0.13100
H1853       H  0.68443281  0.02682566  0.15307108     0.11800
H1854       H  0.65289791  0.05232763  0.13477181     0.13000
H1855       H  0.61068594  0.05152781  0.11698154     0.12100
H1856       H  0.59199281  0.92579393  0.13071234     0.09100
H1857       H  0.54848805  0.42840729  0.11424881     0.12400
H1858       H  0.56794755  0.02491917  0.10487686     0.14300
C1859       C  0.93950678  0.98606660  0.07641632    -0.01200
C1860       C  0.91942337  0.46025685  0.07641120    -0.09300
C1861       C  0.89293648  0.45979774  0.06753442    -0.18100
C1862       C  0.88578000  0.98531265  0.05827685     0.04300
C1863       C  0.90599813  0.01176611  0.05858795     0.18500
C1864       C  0.93260462  0.01183057  0.06755641    -0.19500
C1865       C  0.89972726  0.03788563  0.04985205    -0.20800
C1866       C  0.87380517  0.03832488  0.04071575    -0.19300
C1867       C  0.85362544  0.01258441  0.04003228     0.19900
C1868       C  0.85935754  0.98560170  0.04874780     0.02000
C1869       C  0.83832549  0.46017438  0.04755324    -0.14100
C1870       C  0.81223753  0.46192806  0.03847190    -0.11800
C1871       C  0.80647525  0.98875203  0.03017697     0.01500
C1872       C  0.82741818  0.01385659  0.03082742    -0.23900
H1873       H  0.92467280  0.43996710  0.08306952     0.09500
H1874       H  0.87872725  0.43901335  0.06810368     0.13100
H1875       H  0.94820486  0.03186291  0.06758394     0.11800
H1876       H  0.91499274  0.05814455  0.05008876     0.13000
H1877       H  0.86951713  0.05895668  0.03412668     0.12100
H1878       H  0.84115097  0.43870729  0.05357311     0.09100
H1879       H  0.79619816  0.44230275  0.03801577     0.12400
H1880       H  0.82274212  0.03475441  0.02446401     0.14300
C1881       C  0.69095667  0.98991615  0.03100276    -0.01200
C1882       C  0.68723759  0.46506484  0.04076434    -0.09300
C1883       C  0.66105494  0.46336811  0.04977170    -0.18100
C1884       C  0.63746881  0.98664474  0.04928833     0.04300
C1885       C  0.64131488  0.01184267  0.03931198     0.18500
C1886       C  0.66791498  0.01329075  0.03033358    -0.19500
C1887       C  0.61872256  0.03557084  0.03844259    -0.20800
C1888       C  0.59236146  0.03492304  0.04731983    -0.19300
C1889       C  0.58788652  0.01047377  0.05725084     0.19900
C1890       C  0.61030810  0.98589478  0.05835553     0.02000
C1891       C  0.60440077  0.46152806  0.06840381    -0.14100
C1892       C  0.57738626  0.46153458  0.07691583    -0.11800
C1893       C  0.55559415  0.98595887  0.07593451     0.01500
C1894       C  0.56094976  0.01033429  0.06603101    -0.23900
H1895       H  0.70482844  0.44678573  0.04145162     0.09500
H1896       H  0.66012929  0.44359227  0.05703087     0.13100
H1897       H  0.67099367  0.03291636  0.02298190     0.11800
H1898       H  0.62148855  0.05481421  0.03085723     0.13000
H1899       H  0.57530566  0.05366324  0.04638827     0.12100
H1900       H  0.61990898  0.44183968  0.06982823     0.09100
H1901       H  0.57322870  0.44193428  0.08413813     0.12400
H1902       H  0.54399914  0.02920229  0.06514416     0.14300
C1903       C  0.52640071  0.97872814  0.09973838     0.02300
C1904       C  0.52630786  0.48502512  0.08462578     0.02300
C1905       C  0.99747450  0.48842319  0.07742384    -0.18200
C1906       C  0.96896239  0.48517135  0.08489177     0.02300
C1907       C  0.96930234  0.97878839  0.09997366     0.02300
C1908       C  0.49799179  0.97559280  0.10716649    -0.18200
H1909       H  0.99822650  0.97135667  0.11881109     0.04400
H1910       H  0.49718016  0.49228489  0.06575954     0.04400
C1911       C  0.71959554  0.49726094  0.00692596     0.02300
C1912       C  0.71994673  0.49208458  0.02214327     0.02300
C1913       C  0.74879129  0.48928037  0.02930735    -0.18200
C1914       C  0.77714897  0.49140454  0.02173707     0.02300
C1915       C  0.77683370  0.49688812  0.00658605     0.02300
C1916       C  0.74806444  0.50007246  0.99940124    -0.18200
H1917       H  0.74783548  0.50328406  0.98769059     0.04400
H1918       H  0.74923574  0.48588580  0.04100584     0.04400
O1919       O  0.71529703  0.50983561  0.20397280    -0.74400
O1920       O  0.77949410  0.50602619  0.17486406    -0.74400
O1921       O  0.71603891  0.50639546  0.17466821    -0.74500
O1922       O  0.77953987  0.50916747  0.20420049    -0.74500
O1923       O  0.77908750  0.95701802  0.20550801    -0.74400
O1924       O  0.71605140  0.95421694  0.17589606    -0.74400
O1925       O  0.77957270  0.95387558  0.17629377    -0.74400
O1926       O  0.71450933  0.95756915  0.20501561    -0.74500
Ni1927     Ni  0.74762407  0.50972016  0.18945655     1.25400
Ni1928     Ni  0.74731947  0.95383081  0.19080309     1.25400
C1929       C  0.70316242  0.98430696  0.20860934     0.87800
C1930       C  0.79021038  0.97934345  0.17081061     0.87700
C1931       C  0.70545508  0.47977603  0.17046874     0.87800
C1932       C  0.79086061  0.48346533  0.20920577     0.87900
C1933       C  0.52726133  0.50732326  0.92879925     0.02300
C1934       C  0.52754959  0.50075587  0.94388186     0.02300
C1935       C  0.49910949  0.49829850  0.95142594    -0.18200
C1936       C  0.97036826  0.50229446  0.94431318     0.02300
C1937       C  0.97008095  0.50889481  0.92927312     0.02300
C1938       C  0.49846069  0.51166312  0.92172403    -0.18200
H1939       H  0.49806201  0.51588803  0.91008404     0.04400
H1940       H  0.49935962  0.49394913  0.96305629     0.04400
O1941       O  0.78210119  0.98645183  0.85270587    -0.74400
O1942       O  0.71703204  0.98794595  0.82399368    -0.74400
O1943       O  0.78115690  0.98900181  0.82331274    -0.74500
O1944       O  0.71883482  0.98558325  0.85338423    -0.74500
O1945       O  0.71815976  0.53781692  0.85430005    -0.74400
O1946       O  0.78051624  0.54120580  0.82429311    -0.74400
O1947       O  0.71584416  0.54020882  0.82515741    -0.74400
O1948       O  0.78157884  0.53866379  0.85362928    -0.74500
Ni1949     Ni  0.74983949  0.98540787  0.83823681     1.25400
Ni1950     Ni  0.74904315  0.54133836  0.83928796     1.25400
C1951       C  0.79239175  0.51225481  0.85801153     0.87800
C1952       C  0.70460729  0.51423507  0.82049230     0.87700
C1953       C  0.79213529  0.01559815  0.81930292     0.87800
C1954       C  0.70814197  0.01119918  0.85876326     0.87900
O1955       O  0.54275827  0.72209561  0.67786803    -0.74400
O1956       O  0.53052005  0.78602786  0.70675507    -0.74400
O1957       O  0.53053113  0.72174658  0.70668206    -0.74500
O1958       O  0.54251836  0.78585832  0.67786129    -0.74500
O1959       O  0.99134996  0.78504756  0.67315806    -0.74400
O1960       O  0.97929602  0.72159474  0.70213886    -0.74400
O1961       O  0.97935123  0.78643748  0.70185241    -0.74400
O1962       O  0.99152038  0.72163348  0.67332077    -0.74500
Ni1963     Ni  0.53836756  0.75391872  0.69252103     1.25400
Ni1964     Ni  0.98353159  0.75365929  0.68754541     1.25400
C1965       C  0.51921082  0.71125818  0.67083405     0.87800
C1966       C  0.50319698  0.79790627  0.70844594     0.87700
C1967       C  0.50319324  0.71010135  0.70870883     0.87800
C1968       C  0.51877129  0.79598581  0.67071175     0.87900
C1969       C  0.54021616  0.53106919  0.60056558     0.02300
C1970       C  0.53292970  0.53183876  0.58557551     0.02300
C1971       C  0.53032630  0.00365064  0.57781576    -0.18200
C1972       C  0.53354683  0.97447720  0.58469543     0.02300
C1973       C  0.54071424  0.97366327  0.59975459     0.02300
C1974       C  0.54481515  0.00196502  0.60737272    -0.18200
H1975       H  0.54912466  0.00130679  0.61900352     0.04400
H1976       H  0.52536235  0.00449259  0.56624507     0.04400
C1977       C  0.50185913  0.72240544  0.50790312     0.02300
C1978       C  0.50962535  0.72324761  0.52288987     0.02300
C1979       C  0.51343072  0.75229294  0.52985822    -0.18200
C1980       C  0.50945722  0.78074754  0.52241366     0.02300
C1981       C  0.50140460  0.77991564  0.50745483     0.02300
C1982       C  0.49774505  0.75084914  0.50046339    -0.18200
H1983       H  0.49244107  0.75041613  0.48892011     0.04400
H1984       H  0.51850760  0.75271266  0.54142310     0.04400
C1985       C  0.49964862  0.50345593  0.76469756    -0.02400
C1986       C  0.48241113  0.52938993  0.44484665     0.02300
C1987       C  0.47470822  0.52975296  0.42982160     0.02300
C1988       C  0.47071805  0.50106095  0.42245593    -0.18200
C1989       C  0.47471654  0.97222680  0.42953404     0.02300
C1990       C  0.48194829  0.97189174  0.44452468     0.02300
C1991       C  0.48565945  0.50039545  0.45195451    -0.18200
H1992       H  0.49067677  0.49997752  0.46352534     0.04400
H1993       H  0.46606638  0.50112260  0.41085025     0.04400
O1994       O  0.51210281  0.71756444  0.32526122    -0.74400
O1995       O  0.50747864  0.78265892  0.35393946    -0.74400
O1996       O  0.50766016  0.71914397  0.35464260    -0.74500
O1997       O  0.51134676  0.78217971  0.32457470    -0.74500
O1998       O  0.95923649  0.78215085  0.32336198    -0.74400
O1999       O  0.95563534  0.71867624  0.35268803    -0.74400
O2000       O  0.95539557  0.78238382  0.35262371    -0.74400
O2001       O  0.95999891  0.71747189  0.32347979    -0.74500
Ni2002     Ni  0.51151359  0.75039755  0.33957854     1.25400
Ni2003     Ni  0.95575097  0.75016080  0.33790265     1.25400
C2004       C  0.48680327  0.70585699  0.32015371     0.87800
C2005       C  0.48082764  0.79321083  0.35809676     0.87700
C2006       C  0.48086901  0.70843738  0.35853734     0.87800
C2007       C  0.48567612  0.79378898  0.31963469     0.87900
C2008       C  0.99792368  0.50027614  0.26382252    -0.02400
C2009       C  0.49749071  0.97024038  0.27366736    -0.01200
C2010       C  0.97094770  0.96361758  0.28226559    -0.09300
C2011       C  0.96760485  0.93499340  0.28959419    -0.18100
C2012       C  0.49086125  0.91138962  0.28872486     0.04300
C2013       C  0.51805657  0.91808898  0.28046083     0.18500
C2014       C  0.52085351  0.94662767  0.27292720    -0.19500
C2015       C  0.54238599  0.89605544  0.27957291    -0.20800
C2016       C  0.54052927  0.86764572  0.28693158    -0.19300
C2017       C  0.51390110  0.86004282  0.29504590     0.19900
C2018       C  0.48831710  0.88147035  0.29577033     0.02000
C2019       C  0.96130700  0.87185192  0.30343348    -0.14100
C2020       C  0.96025499  0.84283591  0.31050603    -0.11800
C2021       C  0.48612460  0.82247334  0.31041895     0.01500
C2022       C  0.51281977  0.83119087  0.30252660    -0.23900
H2023       H  0.95208878  0.98057012  0.28297709     0.09500
H2024       H  0.94649811  0.93203361  0.29586940     0.13100
H2025       H  0.54123530  0.94936189  0.26612421     0.11800
H2026       H  0.56325698  0.90099255  0.27327046     0.13000
H2027       H  0.56001634  0.85140643  0.28618991     0.12100
H2028       H  0.94059845  0.88625130  0.30415603     0.09100
H2029       H  0.93932186  0.83680797  0.31653665     0.12400
H2030       H  0.53286609  0.81556058  0.30226385     0.14300
C2031       C  0.48862578  0.67688916  0.31137823    -0.01200
C2032       C  0.49246768  0.67778107  0.29628037    -0.09300
C2033       C  0.49530333  0.64991726  0.28824547    -0.18100
C2034       C  0.49453765  0.62018618  0.29517010     0.04300
C2035       C  0.99061121  0.61966475  0.31054017     0.18500
C2036       C  0.98775804  0.64781711  0.31843385    -0.19500
C2037       C  0.98953788  0.59104588  0.31796943    -0.20800
C2038       C  0.99182988  0.56279212  0.31046540    -0.19300
C2039       C  0.99536198  0.56231556  0.29531379     0.19900
C2040       C  0.49720703  0.59099091  0.28746670     0.02000
C2041       C  0.50169587  0.58910493  0.27227805    -0.14100
C2042       C  0.50271872  0.56016423  0.26515475    -0.11800
C2043       C  0.99882820  0.53157479  0.27269773     0.01500
C2044       C  0.99668682  0.53321909  0.28800308    -0.23900
H2045       H  0.49337095  0.70010813  0.29069013     0.09500
H2046       H  0.49798953  0.65240641  0.27664294     0.13100
H2047       H  0.98498878  0.64717607  0.33017195     0.11800
H2048       H  0.98665943  0.59049399  0.32968881     0.13000
H2049       H  0.99055996  0.54110300  0.31657087     0.12100
H2050       H  0.50421891  0.60961700  0.26554844     0.09100
H2051       H  0.50543124  0.56008580  0.25343002     0.12400
H2052       H  0.99572272  0.51208481  0.29443647     0.14300
C2053       C  0.47488716  0.94323446  0.42060858    -0.01200
C2054       C  0.50267496  0.92620754  0.41902489    -0.09300
C2055       C  0.50437369  0.90081376  0.40946873    -0.18100
C2056       C  0.47805661  0.89152915  0.40116444     0.04300
C2057       C  0.94940945  0.90790712  0.40341035     0.18500
C2058       C  0.94819554  0.93380999  0.41290544    -0.19500
C2059       C  0.92230747  0.89856280  0.39602184    -0.20800
C2060       C  0.92312594  0.87359195  0.38625676    -0.19300
C2061       C  0.95123935  0.85783745  0.38333778     0.19900
C2062       C  0.47917630  0.86675781  0.39067074     0.02000
C2063       C  0.50718928  0.85103395  0.38690091    -0.14100
C2064       C  0.50740801  0.82737298  0.37641278    -0.11800
C2065       C  0.47979972  0.81824297  0.36934003     0.01500
C2066       C  0.95170334  0.83354369  0.37293653    -0.23900
H2067       H  0.52348036  0.93317527  0.42494105     0.09500
H2068       H  0.52663701  0.88898493  0.40882220     0.13100
H2069       H  0.92657103  0.94686881  0.41423969     0.11800
H2070       H  0.90030931  0.91069163  0.39779159     0.13000
H2071       H  0.90171984  0.86695844  0.38072854     0.12100
H2072       H  0.52949478  0.85686181  0.39164702     0.09100
H2073       H  0.52950899  0.81617746  0.37383044     0.12400
H2074       H  0.93022289  0.82695233  0.36745198     0.14300
C2075       C  0.47859091  0.68358259  0.36973710    -0.01200
C2076       C  0.95244491  0.66382735  0.36991236    -0.09300
C2077       C  0.44973183  0.63994024  0.38018380    -0.18100
C2078       C  0.47314304  0.63506594  0.39082956     0.04300
C2079       C  0.49945551  0.65548400  0.39078460     0.18500
C2080       C  0.50203320  0.67932939  0.38024565    -0.19500
C2081       C  0.52319030  0.65173149  0.40115620    -0.20800
C2082       C  0.52193653  0.62746396  0.41125919    -0.19300
C2083       C  0.49684004  0.60640260  0.41130433     0.19900
C2084       C  0.47172308  0.61028910  0.40129478     0.02000
C2085       C  0.44661896  0.58876117  0.40200378    -0.14100
C2086       C  0.94721625  0.56365075  0.41171389    -0.11800
C2087       C  0.47263324  0.55907681  0.42110160     0.01500
C2088       C  0.49714494  0.58091124  0.42102389    -0.23900
H2089       H  0.93407833  0.66650787  0.36187124     0.09500
H2090       H  0.92911083  0.62556005  0.37938937     0.13100
H2091       H  0.52223140  0.69468772  0.38026786     0.11800
H2092       H  0.54314899  0.66737684  0.40130577     0.13000
H2093       H  0.54099130  0.62486880  0.41895942     0.12100
H2094       H  0.92637517  0.59031517  0.39505371     0.09100
H2095       H  0.92791362  0.54720610  0.41167844     0.12400
H2096       H  0.51710738  0.57734467  0.42812449     0.14300
C2097       C  0.48477394  0.94229570  0.45287033    -0.01200
C2098       C  0.95995381  0.92098320  0.45322123    -0.09300
C2099       C  0.96152306  0.89422276  0.46193476    -0.18100
C2100       C  0.98818834  0.88796494  0.47063190     0.04300
C2101       C  0.51363164  0.90936940  0.46991057     0.18500
C2102       C  0.51162178  0.93625499  0.46115486    -0.19500
C2103       C  0.54084954  0.90397862  0.47801864    -0.20800
C2104       C  0.54337144  0.87780235  0.48693901    -0.19300
C2105       C  0.51862128  0.85652243  0.48808217     0.19900
C2106       C  0.99057259  0.86133129  0.48000362     0.02000
C2107       C  0.96613997  0.83930295  0.48171301    -0.14100
C2108       C  0.96970751  0.81336998  0.49080101    -0.11800
C2109       C  0.49748610  0.80861147  0.49856400     0.01500
C2110       C  0.52183584  0.83030713  0.49721355    -0.23900
H2111       H  0.93892169  0.92544003  0.44695595     0.09500
H2112       H  0.94142270  0.87903089  0.46166642     0.13100
H2113       H  0.53093662  0.95270956  0.46081803     0.11800
H2114       H  0.56035607  0.92014553  0.47745783     0.13000
H2115       H  0.56479816  0.87425838  0.49304844     0.12100
H2116       H  0.94399782  0.84138429  0.47618480     0.09100
H2117       H  0.95062318  0.79680470  0.49177514     0.12400
H2118       H  0.54348718  0.82645799  0.50312342     0.14300
C2119       C  0.49906498  0.69261982  0.49948844    -0.01200
C2120       C  0.52286353  0.66999772  0.49990561    -0.09300
C2121       C  0.52120482  0.64303607  0.49126951    -0.18100
C2122       C  0.99569395  0.63797695  0.48170362     0.04300
C2123       C  0.97142029  0.66083181  0.48147209     0.18500
C2124       C  0.97330669  0.68769066  0.49030066    -0.19500
C2125       C  0.94549793  0.65693360  0.47232729    -0.20800
C2126       C  0.94309613  0.63079946  0.46334576    -0.19300
C2127       C  0.96664128  0.60795308  0.46320342     0.19900
C2128       C  0.99338803  0.61123607  0.47232786     0.02000
C2129       C  0.51664241  0.58763463  0.47161291    -0.14100
C2130       C  0.51318558  0.56174451  0.46244777    -0.11800
C2131       C  0.48659778  0.55838295  0.45365654     0.01500
C2132       C  0.96344782  0.58167924  0.45405169    -0.23900
H2133       H  0.54322668  0.67348389  0.50673869     0.09500
H2134       H  0.54042916  0.62678604  0.49222708     0.13100
H2135       H  0.95472146  0.70503860  0.48995848     0.11800
H2136       H  0.92691569  0.67426939  0.47210735     0.13000
H2137       H  0.92268040  0.62848650  0.45642228     0.12100
H2138       H  0.53775162  0.58842198  0.47801680     0.09100
H2139       H  0.53140950  0.54403961  0.46227308     0.12400
H2140       H  0.94260969  0.57901437  0.44742621     0.14300
C2141       C  0.52871115  0.94561151  0.57583362    -0.01200
C2142       C  0.00269176  0.94332094  0.56659961    -0.09300
C2143       C  0.99844970  0.91719674  0.55765946    -0.18100
C2144       C  0.52026377  0.89221974  0.55764465     0.04300
C2145       C  0.54651908  0.89452017  0.56713335     0.18500
C2146       C  0.55049278  0.92101202  0.57607118    -0.19500
C2147       C  0.56886618  0.87051526  0.56753480    -0.20800
C2148       C  0.56594886  0.84436752  0.55860187    -0.19300
C2149       C  0.54050322  0.84144049  0.54909709     0.19900
C2150       C  0.51711947  0.86516844  0.54852921     0.02000
C2151       C  0.99158167  0.86060780  0.53892592    -0.14100
C2152       C  0.98933664  0.83357934  0.53037173    -0.11800
C2153       C  0.51265304  0.81046457  0.53084615     0.01500
C2154       C  0.53820625  0.81468803  0.54023783    -0.23900
H2155       H  0.98545021  0.96197308  0.56628491     0.09500
H2156       H  0.97796645  0.91739688  0.55082074     0.13100
H2157       H  0.57092433  0.92280104  0.58302586     0.11800
H2158       H  0.58886429  0.87204642  0.57476277     0.13000
H2159       H  0.58373765  0.82624874  0.55915005     0.12100
H2160       H  0.97268163  0.87722437  0.53793565     0.09100
H2161       H  0.96889639  0.83048077  0.52355287     0.12400
H2162       H  0.55630476  0.79684771  0.54073217     0.14300
C2163       C  0.52754757  0.56148725  0.57760917    -0.01200
C2164       C  0.99954101  0.56586494  0.56999385    -0.09300
C2165       C  0.99501311  0.59229734  0.56134616    -0.18100
C2166       C  0.51874933  0.61514003  0.55988969     0.04300
C2167       C  0.54678796  0.61102079  0.56805874     0.18500
C2168       C  0.55087282  0.58439490  0.57684838    -0.19500
C2169       C  0.57084041  0.63314260  0.56716065    -0.20800
C2170       C  0.56790593  0.65910560  0.55813390    -0.19300
C2171       C  0.54091713  0.66348412  0.54973060     0.19900
C2172       C  0.51587173  0.64163639  0.55048954     0.02000
C2173       C  0.98923898  0.64710297  0.54165956    -0.14100
C2174       C  0.98754830  0.67321334  0.53255997    -0.11800
C2175       C  0.51227217  0.69457682  0.53189394     0.01500
C2176       C  0.53885183  0.68963180  0.54052783    -0.23900
H2177       H  0.98115537  0.54845109  0.57062661     0.09500
H2178       H  0.97284250  0.59389407  0.55581351     0.13100
H2179       H  0.57261131  0.58092822  0.58274043     0.11800
H2180       H  0.59219201  0.63021017  0.57339508     0.13000
H2181       H  0.58701810  0.67574671  0.55762195     0.12100
H2182       H  0.96928308  0.63172376  0.54152716     0.09100
H2183       H  0.96659391  0.67700140  0.52614678     0.12400
H2184       H  0.55800045  0.70626493  0.54004020     0.14300
C2185       C  0.52263183  0.82065184  0.65948535    -0.01200
C2186       C  0.99707163  0.82917504  0.65077933    -0.09300
C2187       C  0.99979434  0.85248613  0.64025726    -0.18100
C2188       C  0.02836030  0.86844636  0.63807401     0.04300
C2189       C  0.55423524  0.86011912  0.64702950     0.18500
C2190       C  0.55127776  0.83618419  0.65749628    -0.19500
C2191       C  0.58269828  0.87610127  0.64563639    -0.20800
C2192       C  0.58577284  0.90070484  0.63578788    -0.19300
C2193       C  0.56067461  0.90949842  0.62686131     0.19900
C2194       C  0.03186501  0.89291676  0.62760006     0.02000
C2195       C  0.00764719  0.90182327  0.61793543    -0.14100
C2196       C  0.01126220  0.92718961  0.60855515    -0.11800
C2197       C  0.53909247  0.94434930  0.60835325     0.01500
C2198       C  0.56392724  0.93517295  0.61737984    -0.23900
H2199       H  0.97460890  0.81777950  0.65209265     0.09500
H2200       H  0.97885959  0.85779731  0.63420403     0.13100
H2201       H  0.57116901  0.83003324  0.66425451     0.11800
H2202       H  0.60254995  0.86992319  0.65240795     0.13000
H2203       H  0.60789683  0.91303952  0.63519850     0.12100
H2204       H  0.98547943  0.88989732  0.61742669     0.09100
H2205       H  0.99176047  0.93409126  0.60172009     0.12400
H2206       H  0.58556173  0.94843177  0.61718267     0.14300
C2207       C  0.52404025  0.68624105  0.65981345    -0.01200
C2208       C  0.55304353  0.67101436  0.65861281    -0.09300
C2209       C  0.55751173  0.64670977  0.64860979    -0.18100
C2210       C  0.03296960  0.63677489  0.63936029     0.04300
C2211       C  0.00379729  0.65279034  0.64038426     0.18500
C2212       C  0.99959587  0.67709510  0.65054912    -0.19500
C2213       C  0.97883055  0.64428050  0.63135226    -0.20800
C2214       C  0.98197738  0.61982411  0.62145672    -0.19300
C2215       C  0.01010105  0.60309767  0.62040375     0.19900
C2216       C  0.03612077  0.61135557  0.62927437     0.02000
C2217       C  0.56384587  0.59332062  0.62786143    -0.14100
C2218       C  0.56530090  0.56778640  0.61832990    -0.11800
C2219       C  0.53949969  0.55970985  0.60974901     0.01500
C2220       C  0.01207883  0.57763807  0.61074220    -0.23900
H2221       H  0.57239039  0.67762660  0.66558385     0.14700
H2222       H  0.58042450  0.63611446  0.64843034     0.13100
H2223       H  0.97711220  0.68884904  0.65126678     0.11800
H2224       H  0.95659423  0.65649150  0.63201918     0.13000
H2225       H  0.96209860  0.61366768  0.61470715     0.12100
H2226       H  0.58460729  0.59795664  0.63415441     0.09100
H2227       H  0.58662942  0.55405261  0.61773063     0.12400
H2228       H  0.99185994  0.57106704  0.60428973     0.14300
C2229       C  0.50051260  0.97297803  0.75524327    -0.01200
C2230       C  0.49887131  0.97291069  0.73992201    -0.09300
C2231       C  0.49838247  0.94482651  0.73201732    -0.18100
C2232       C  0.50064415  0.91542111  0.73903441     0.04300
C2233       C  0.00486269  0.91534393  0.75433863     0.18500
C2234       C  0.00436077  0.94363085  0.76220571    -0.19500
C2235       C  0.00966794  0.88700818  0.76172318    -0.20800
C2236       C  0.01066525  0.85869079  0.75417614    -0.19300
C2237       C  0.00562270  0.85781682  0.73912517     0.19900
C2238       C  0.49962555  0.88613672  0.73140015     0.02000
C2239       C  0.49241365  0.88383378  0.71641773    -0.14100
C2240       C  0.49227873  0.85482398  0.70933884    -0.11800
C2241       C  0.49985393  0.82727490  0.71681517     0.01500
C2242       C  0.00652552  0.82882435  0.73172090    -0.23900
H2243       H  0.49796151  0.99439484  0.73376581     0.09500
H2244       H  0.49699274  0.94689629  0.72034025     0.13100
H2245       H  0.00663422  0.94291337  0.77395734     0.11800
H2246       H  0.01313965  0.88678304  0.77340916     0.13000
H2247       H  0.01497875  0.83726934  0.76019071     0.12100
H2248       H  0.48641091  0.90400910  0.70992640     0.09100
H2249       H  0.48715694  0.85400023  0.69778896     0.12400
H2250       H  0.01224526  0.80746473  0.73754130     0.14300
C2251       C  0.50022532  0.53419282  0.75533891    -0.01200
C2252       C  0.97426213  0.54238568  0.74660448    -0.09300
C2253       C  0.97270203  0.57117847  0.73923434    -0.18100
C2254       C  0.99724077  0.59331508  0.74023056     0.04300
C2255       C  0.52355657  0.58513519  0.74885426     0.18500
C2256       C  0.52452525  0.55658332  0.75640489    -0.19500
C2257       C  0.54900713  0.60561295  0.75004948    -0.20800
C2258       C  0.54913317  0.63399393  0.74270505    -0.19300
C2259       C  0.52353850  0.64301821  0.73420097     0.19900
C2260       C  0.99691792  0.62315917  0.73299565     0.02000
C2261       C  0.97136856  0.63416654  0.72460167    -0.14100
C2262       C  0.97281804  0.66302446  0.71730352    -0.11800
C2263       C  0.49974407  0.68181222  0.71805222     0.01500
C2264       C  0.52475889  0.67172488  0.72674099    -0.23900
H2265       H  0.95466665  0.52642960  0.74567393     0.09500
H2266       H  0.95200265  0.57545192  0.73281508     0.13100
H2267       H  0.54446111  0.55277560  0.76338226     0.11800
H2268       H  0.56921266  0.59947734  0.75660550     0.13000
H2269       H  0.56943733  0.64904569  0.74371265     0.12100
H2270       H  0.95009146  0.62086308  0.72338765     0.09100
H2271       H  0.95311154  0.67014842  0.71065565     0.12400
H2272       H  0.54564798  0.68604065  0.72750938     0.14300
C2273       C  0.96850006  0.50500604  0.77370183    -0.01200
C2274       C  0.96103974  0.53222498  0.78175442    -0.09300
C2275       C  0.93197261  0.53594546  0.78865288    -0.18100
C2276       C  0.90881649  0.51235785  0.78792690     0.04300
C2277       C  0.91630752  0.98458837  0.78016295     0.18500
C2278       C  0.94515393  0.98153741  0.77294421    -0.19500
C2279       C  0.89489197  0.95979076  0.77956166    -0.20800
C2280       C  0.86637019  0.96169230  0.78677151    -0.19300
C2281       C  0.85803120  0.98882920  0.79439579     0.19900
C2282       C  0.87869337  0.51496431  0.79475275     0.02000
C2283       C  0.86819398  0.54239763  0.80193165    -0.14100
C2284       C  0.83928856  0.54311769  0.80915545    -0.11800
C2285       C  0.81998234  0.01652252  0.80958659     0.01500
C2286       C  0.82930846  0.98971169  0.80187776    -0.23900
H2287       H  0.97778987  0.55119428  0.78247301     0.09500
H2288       H  0.92838537  0.55747133  0.79458130     0.13100
H2289       H  0.94850940  0.96065627  0.76651707     0.11800
H2290       H  0.90047648  0.93846734  0.77367601     0.13000
H2291       H  0.85067283  0.94177969  0.78634753     0.12100
H2292       H  0.88192047  0.56356839  0.80222781     0.09100
H2293       H  0.83263494  0.56423973  0.81493797     0.12400
H2294       H  0.81443612  0.96913944  0.80194413     0.14300
C2295       C  0.67506121  0.51428320  0.81221391    -0.01200
C2296       C  0.64754795  0.02396860  0.81918825    -0.09300
C2297       C  0.61847858  0.02107788  0.81232808    -0.18100
C2298       C  0.61615607  0.50894633  0.79804573     0.04300
C2299       C  0.64444133  0.50081543  0.79072885     0.18500
C2300       C  0.67344370  0.50264411  0.79799783    -0.19500
C2301       C  0.64356040  0.49112592  0.77618072    -0.20800
C2302       C  0.61529252  0.48994816  0.76866358    -0.19300
C2303       C  0.58702234  0.49694206  0.77570200     0.19900
C2304       C  0.58689950  0.50533334  0.79062566     0.02000
C2305       C  0.55749457  0.00919348  0.79749511    -0.14100
C2306       C  0.52945715  0.00686762  0.78963433    -0.11800
C2307       C  0.52957726  0.50191549  0.77446191     0.01500
C2308       C  0.55888350  0.49588087  0.76781546    -0.23900
H2309       H  0.64847908  0.03299361  0.83021289     0.09500
H2310       H  0.59827894  0.02901883  0.81834596     0.13100
H2311       H  0.69479488  0.49533149  0.79256905     0.11800
H2312       H  0.66495827  0.48509731  0.77047669     0.13000
H2313       H  0.61551079  0.48317091  0.75729137     0.12100
H2314       H  0.55547209  0.01348004  0.80902929     0.09100
H2315       H  0.50793395  0.00957831  0.79563831     0.12400
H2316       H  0.55980769  0.49121584  0.75622089     0.14300
C2317       C  0.81692771  0.51142794  0.86939444    -0.01200
C2318       C  0.82575752  0.48290278  0.87574881    -0.09300
C2319       C  0.84885771  0.98178450  0.88647414    -0.18100
C2320       C  0.86426303  0.00933281  0.89112770     0.04300
C2321       C  0.85546402  0.03819123  0.88454324     0.18500
C2322       C  0.83174845  0.03902907  0.87395565    -0.19500
C2323       C  0.87083577  0.06597112  0.88833319    -0.20800
C2324       C  0.89559362  0.06556775  0.89815154    -0.19300
C2325       C  0.90501475  0.03751221  0.90471122     0.19900
C2326       C  0.88877302  0.00915085  0.90170088     0.02000
C2327       C  0.89810982  0.98179553  0.90926432    -0.14100
C2328       C  0.92372798  0.48224560  0.91867779    -0.11800
C2329       C  0.94073459  0.50979105  0.92081973     0.01500
C2330       C  0.93103415  0.03748064  0.91404821    -0.23900
H2331       H  0.81473942  0.46119723  0.87242932     0.09500
H2332       H  0.85458555  0.95890486  0.89066563     0.13100
H2333       H  0.82527571  0.06122433  0.86905060     0.11800
H2334       H  0.86418506  0.08806073  0.88338747     0.13000
H2335       H  0.90760041  0.08732369  0.90055479     0.12100
H2336       H  0.88625961  0.95967501  0.90807412     0.09100
H2337       H  0.93093296  0.46073331  0.92398514     0.12400
H2338       H  0.94412624  0.05887458  0.91590106     0.14300
C2339       C  0.68350366  0.01022691  0.87007209    -0.01200
C2340       C  0.67839851  0.98308013  0.87829358    -0.09300
C2341       C  0.65454029  0.98200267  0.88870965    -0.18100
C2342       C  0.63457121  0.50805622  0.89104567     0.04300
C2343       C  0.63982319  0.53544314  0.88257838     0.18500
C2344       C  0.66431282  0.53641906  0.87241162    -0.19500
C2345       C  0.62022225  0.56156061  0.88406748    -0.20800
C2346       C  0.59500062  0.56092702  0.89359309    -0.19300
C2347       C  0.58908506  0.53437125  0.90206150     0.19900
C2348       C  0.60912216  0.50774319  0.90117209     0.02000
C2349       C  0.60249724  0.98193116  0.91034189    -0.14100
C2350       C  0.57643250  0.98218236  0.91954340    -0.11800
C2351       C  0.55628535  0.50807706  0.91994612     0.01500
C2352       C  0.56291369  0.53418474  0.91129148    -0.23900
H2353       H  0.69296675  0.96255039  0.87668836     0.09500
H2354       H  0.65195936  0.96026600  0.89454555     0.13100
H2355       H  0.66785296  0.55742915  0.86598452     0.11800
H2356       H  0.62410094  0.58246803  0.87762332     0.13000
H2357       H  0.57991657  0.58133754  0.89429562     0.12100
H2358       H  0.61687510  0.96115799  0.91058763     0.09100
H2359       H  0.57157361  0.96173760  0.92614821     0.12400
H2360       H  0.54742307  0.55435095  0.91169540     0.14300
C2361       C  0.96725575  0.49845708  0.25447652    -0.01200
C2362       C  0.95981372  0.97049308  0.24700817    -0.09300
C2363       C  0.93103756  0.96648422  0.23992965    -0.18100
C2364       C  0.90840092  0.99068551  0.23967631     0.04300
C2365       C  0.91627461  0.51945707  0.24645766     0.18500
C2366       C  0.94453243  0.52265004  0.25412433    -0.19500
C2367       C  0.89575427  0.54506637  0.24566975    -0.20800
C2368       C  0.86752748  0.54271172  0.23824462    -0.19300
C2369       C  0.85844947  0.51430884  0.23194075     0.19900
C2370       C  0.87837844  0.98762158  0.23285798     0.02000
C2371       C  0.86713326  0.95903576  0.22709545    -0.14100
C2372       C  0.83801455  0.95746372  0.22013516    -0.11800
C2373       C  0.81927428  0.48429344  0.21852294     0.01500
C2374       C  0.82955377  0.51255063  0.22465450    -0.23900
H2375       H  0.97627681  0.95114614  0.24695615     0.09500
H2376       H  0.92731379  0.94429840  0.23458150     0.13100
H2377       H  0.94784369  0.54425214  0.25998672     0.11800
H2378       H  0.90177274  0.56727125  0.25067284     0.13000
H2379       H  0.85246248  0.56314630  0.23762695     0.12100
H2380       H  0.88028741  0.93750074  0.22786184     0.09100
H2381       H  0.83066301  0.93527425  0.21554510     0.12400
H2382       H  0.81516322  0.53340315  0.22362138     0.14300
C2383       C  0.52811292  0.00051044  0.25428290    -0.01200
C2384       C  0.52807619  0.99605312  0.23908246    -0.09300
C2385       C  0.55610082  0.49354570  0.23126141    -0.18100
C2386       C  0.58547990  0.49638068  0.23822769     0.04300
C2387       C  0.58562537  0.50388453  0.25326003     0.18500
C2388       C  0.55739652  0.50554739  0.26107095    -0.19500
C2389       C  0.61399082  0.50938701  0.26047186    -0.20800
C2390       C  0.64234517  0.50740326  0.25305170    -0.19300
C2391       C  0.64314196  0.49871035  0.23836594     0.19900
C2392       C  0.61469648  0.49243909  0.23081075     0.02000
C2393       C  0.61679250  0.48177191  0.21627118    -0.14100
C2394       C  0.64580168  0.97825298  0.20945693    -0.11800
C2395       C  0.67354000  0.98571863  0.21675106     0.01500
C2396       C  0.67220680  0.49600940  0.23118986    -0.23900
H2397       H  0.50657194  0.99409365  0.23299837     0.09500
H2398       H  0.55401861  0.48983687  0.21969320     0.13100
H2399       H  0.55815694  0.50993611  0.27269288     0.11800
H2400       H  0.61424178  0.51545877  0.27192908     0.13000
H2401       H  0.66384566  0.51209772  0.25892046     0.12100
H2402       H  0.59646525  0.47544382  0.20997473     0.09100
H2403       H  0.64657249  0.97026444  0.19825644     0.12400
H2404       H  0.69376726  0.50162165  0.23684561     0.14300
C2405       C  0.94121794  0.50012850  0.95297055    -0.01200
C2406       C  0.93538208  0.47344420  0.96134905    -0.09300
C2407       C  0.90885671  0.47165909  0.97015589    -0.18100
C2408       C  0.88732501  0.49685898  0.97095005     0.04300
C2409       C  0.89336749  0.52387973  0.96232980     0.18500
C2410       C  0.92009881  0.52524246  0.95345352    -0.19500
C2411       C  0.87288585  0.54950689  0.96273192    -0.20800
C2412       C  0.84643318  0.54895585  0.97153873    -0.19300
C2413       C  0.83984690  0.52278822  0.98017815     0.19900
C2414       C  0.86018552  0.49632973  0.98003742     0.02000
C2415       C  0.85244887  0.47054725  0.98902472    -0.14100
C2416       C  0.82571029  0.47107588  0.99773561    -0.11800
C2417       C  0.80587817  0.49717607  0.99780599     0.01500
C2418       C  0.81294382  0.52289706  0.98896294    -0.23900
H2419       H  0.95154964  0.95383471  0.96109128     0.09500
H2420       H  0.90605328  0.45031900  0.97626353     0.13100
H2421       H  0.92488407  0.54614133  0.94712599     0.11800
H2422       H  0.87738738  0.57016238  0.95620172     0.13000
H2423       H  0.83103144  0.56918156  0.97161160     0.12100
H2424       H  0.86644348  0.44955634  0.98954585     0.09100
H2425       H  0.82021774  0.95075199  0.00432999     0.12400
H2426       H  0.79743057  0.54306172  0.98897890     0.14300
C2427       C  0.69029298  0.49748227  0.99832993    -0.01200
C2428       C  0.66971709  0.97204253  0.99893449    -0.09300
C2429       C  0.64323983  0.97109733  0.99005708    -0.18100
C2430       C  0.63667078  0.49566053  0.98015679     0.04300
C2431       C  0.65751097  0.52161493  0.97977293     0.18500
C2432       C  0.68400387  0.52222759  0.98877857    -0.19500
C2433       C  0.65191913  0.54675446  0.97035302    -0.20800
C2434       C  0.62587795  0.54683834  0.96130640    -0.19300
C2435       C  0.60495242  0.52167018  0.96138214     0.19900
C2436       C  0.61016391  0.49552146  0.97068702     0.02000
C2437       C  0.58849574  0.97049189  0.97013608    -0.14100
C2438       C  0.56225889  0.97196697  0.96112867    -0.11800
C2439       C  0.55693395  0.49813665  0.95230826     0.01500
C2440       C  0.57851008  0.52274635  0.95234784    -0.23900
H2441       H  0.67449424  0.95249538  0.00612519     0.09500
H2442       H  0.62853368  0.95076330  0.99116161     0.13100
H2443       H  0.69997212  0.54194456  0.98832497     0.11800
H2444       H  0.66773858  0.56657698  0.97002563     0.13000
H2445       H  0.62204754  0.56677051  0.95421184     0.12100
H2446       H  0.59097267  0.94958213  0.97659708     0.09100
H2447       H  0.54579433  0.95267604  0.96114301     0.12400
H2448       H  0.57418757  0.54318064  0.94561849     0.14300
C2449       C  0.81541049  0.97789110  0.15977384    -0.01200
C2450       C  0.83249921  0.95018539  0.15776379    -0.09300
C2451       C  0.85679609  0.94868034  0.14763950    -0.18100
C2452       C  0.86474983  0.97497999  0.13904161     0.04300
C2453       C  0.84696656  0.00290648  0.14093329     0.18500
C2454       C  0.82278405  0.50418285  0.15128909    -0.19500
C2455       C  0.85349367  0.52945153  0.13251937    -0.20800
C2456       C  0.87750856  0.52898136  0.12230384    -0.19300
C2457       C  0.89583075  0.00206856  0.12036596     0.19900
C2458       C  0.88977512  0.97465251  0.12871859     0.02000
C2459       C  0.90946630  0.94833695  0.12657380    -0.14100
C2460       C  0.93449999  0.94953679  0.11685712    -0.11800
C2461       C  0.94044874  0.97665234  0.10880407     0.01500
C2462       C  0.92080027  0.50270755  0.11040597    -0.23900
H2463       H  0.82732951  0.92954894  0.16418486     0.09500
H2464       H  0.86880713  0.92653461  0.14680553     0.13100
H2465       H  0.80954794  0.52569532  0.15268227     0.11800
H2466       H  0.83995066  0.55077140  0.13386913     0.13000
H2467       H  0.88204269  0.54995958  0.11600505     0.12100
H2468       H  0.90667549  0.92672381  0.13247234     0.09100
H2469       H  0.94971685  0.92930925  0.11578183     0.12400
H2470       H  0.92578544  0.52389210  0.10431772     0.14300
C2471       C  0.68037589  0.47836856  0.15937338    -0.01200
C2472       C  0.66423864  0.95028780  0.15694344    -0.09300
C2473       C  0.64011771  0.44868877  0.14674285    -0.18100
C2474       C  0.63128672  0.47529219  0.13852626     0.04300
C2475       C  0.64791250  0.50368243  0.14093420     0.18500
C2476       C  0.67204961  0.50499846  0.15131136    -0.19500
C2477       C  0.64025670  0.53066187  0.13302996    -0.20800
C2478       C  0.61618144  0.53020100  0.12285365    -0.19300
C2479       C  0.59902888  0.50280538  0.12039502     0.19900
C2480       C  0.60637340  0.47486781  0.12815015     0.02000
C2481       C  0.58800734  0.44793466  0.12538480    -0.14100
C2482       C  0.56274665  0.94910431  0.11579070    -0.11800
C2483       C  0.55545104  0.47680592  0.10840650     0.01500
C2484       C  0.57395279  0.50341114  0.11050884    -0.23900
H2485       H  0.67005682  0.92939192  0.16307281     0.09500
H2486       H  0.62884829  0.42626646  0.14559725     0.13100
H2487       H  0.68442689  0.52683835  0.15307912     0.11800
H2488       H  0.65288485  0.55234917  0.13478538     0.13000
H2489       H  0.61067347  0.55155448  0.11699476     0.12100
H2490       H  0.59201806  0.42580103  0.13069824     0.09100
H2491       H  0.54846503  0.92839600  0.11426157     0.12400
H2492       H  0.56794339  0.52494485  0.10488402     0.14300
C2493       C  0.93951265  0.48608878  0.07641696    -0.01200
C2494       C  0.91941711  0.96023504  0.07641092    -0.09300
C2495       C  0.89293101  0.95977531  0.06753364    -0.18100
C2496       C  0.88578451  0.48533582  0.05827825     0.04300
C2497       C  0.90600090  0.51179056  0.05859047     0.18500
C2498       C  0.93260823  0.51185446  0.06755847    -0.19500
C2499       C  0.89972785  0.53791161  0.04985587    -0.20800
C2500       C  0.87380622  0.53835045  0.04071924    -0.19300
C2501       C  0.85362949  0.51260781  0.04003386     0.19900
C2502       C  0.85936322  0.48562404  0.04874844     0.02000
C2503       C  0.83831633  0.96015448  0.04755471    -0.14100
C2504       C  0.81222680  0.96190958  0.03847444    -0.11800
C2505       C  0.80648409  0.48877156  0.03017543     0.01500
C2506       C  0.82742383  0.51387860  0.03082789    -0.23900
H2507       H  0.92466543  0.93994625  0.08307006     0.09500
H2508       H  0.87872148  0.93899116  0.06810314     0.13100
H2509       H  0.94820763  0.53188746  0.06758654     0.11800
H2510       H  0.91499156  0.55817180  0.05009368     0.13000
H2511       H  0.86951674  0.55898327  0.03413107     0.12100
H2512       H  0.84114003  0.93868845  0.05357557     0.09100
H2513       H  0.79618505  0.94228607  0.03801976     0.12400
H2514       H  0.82274625  0.53477723  0.02446528     0.14300
C2515       C  0.69096555  0.48993371  0.03100171    -0.01200
C2516       C  0.68723019  0.96504771  0.04076581    -0.09300
C2517       C  0.66104813  0.96335035  0.04977350    -0.18100
C2518       C  0.63747676  0.48666379  0.04928665     0.04300
C2519       C  0.64132465  0.51186235  0.03931084     0.18500
C2520       C  0.66792521  0.51330966  0.03033273    -0.19500
C2521       C  0.61873360  0.53559178  0.03844163    -0.20800
C2522       C  0.59237191  0.53494459  0.04731854    -0.19300
C2523       C  0.58789511  0.51049471  0.05724906     0.19900
C2524       C  0.61031547  0.48591450  0.05835349     0.02000
C2525       C  0.60439513  0.96150900  0.06840648    -0.14100
C2526       C  0.57738086  0.96151487  0.07691873    -0.11800
C2527       C  0.55560098  0.48598001  0.07593224     0.01500
C2528       C  0.56095792  0.51035589  0.06602909    -0.23900
H2529       H  0.70482191  0.94676949  0.04145326     0.09500
H2530       H  0.66012384  0.94357505  0.05703303     0.13100
H2531       H  0.67100522  0.53293556  0.02298133     0.11800
H2532       H  0.62150102  0.55483564  0.03085667     0.13000
H2533       H  0.57531714  0.55368577  0.04638714     0.12100
H2534       H  0.61990456  0.94182171  0.06983123     0.09100
H2535       H  0.57322459  0.94191534  0.08414166     0.12400
H2536       H  0.54400830  0.52922484  0.06514252     0.14300
loop_ 
_geom_bond_atom_site_label_1 
_geom_bond_atom_site_label_2 
_geom_bond_distance 
_geom_bond_site_symmetry_2 
_ccdc_geom_bond_type 
C1            C6   1.399   1_455  A
C1          C636   1.414       .  A
C1         C1215   1.476       .  S
C2          C635   1.414       .  A
C2         C1271   1.405   1_455  A
C2          C625   1.485       .  S
C3            C4   1.405       .  A
C3         C1270   1.405       .  A
C3         H1276   1.084       .  S
C4          C639   1.412       .  A
C4          C591   1.480       .  S
C5          C638   1.412       .  A
C5         C1274   1.399       .  A
C5          C559   1.478       .  S
C6         C1273   1.399       .  A
C6         H1275   1.085       .  S
H7         C1274   1.085       .  S
H8         C1271   1.084       .  S
C9           C10   1.416       .  A
C9           C14   1.404   1_564  A
C9          C525   1.480   1_554  S
C10          C11   1.402       .  A
C10         C613   1.484       .  S
C11          C12   1.400       .  A
C11          H16   1.085       .  S
C12          C13   1.412       .  A
C12         C603   1.477       .  S
C13          C14   1.401   1_564  A
C13         C515   1.480   1_554  S
C14          H15   1.085       .  S
O17         Ni25   1.919       .  S
O17         C661   1.280   1_545  A
O18         Ni25   1.917       .  S
O18         C662   1.281   1_545  A
O19         Ni25   1.920       .  S
O19          C29   1.282   1_545  A
O20         Ni25   1.922       .  S
O20          C30   1.283   1_545  A
O21         Ni26   1.920       .  S
O21         C664   1.282       .  A
O22         Ni26   1.913       .  S
O22         C663   1.281       .  A
O23         Ni26   1.917       .  S
O23          C28   1.282       .  A
O24         Ni26   1.922       .  S
O24          C27   1.281       .  A
Ni25       Ni660   2.388   1_545  S
Ni26       Ni659   2.388       .  S
C27         C493   1.471       .  S
C27         O651   1.280       .  A
C28         C547   1.480       .  S
C28         O652   1.281       .  A
C29         C569   1.480       .  S
C29         O656   1.281       .  A
C30         C471   1.485       .  S
C30         O655   1.282       .  A
C31          C32   1.414       .  A
C31          C36   1.403   1_455  A
C31         C449   1.483       .  S
C32          C33   1.403   1_445  A
C32         C537   1.479   1_545  S
C33        C1302   1.401   1_565  A
C33          H38   1.085       .  S
C34          C35   1.410       .  A
C34        C1301   1.401   1_545  A
C34         C503   1.480       .  S
C35        C1304   1.402       .  A
C35         C427   1.475       .  S
C36        C1303   1.402       .  A
C36          H37   1.085       .  S
O39         Ni47   1.915       .  S
O39         C683   1.281       .  A
O40         Ni47   1.920       .  S
O40         C684   1.280       .  A
O41         Ni47   1.922       .  S
O41          C51   1.283       .  A
O42         Ni47   1.921       .  S
O42          C52   1.282       .  A
O43         Ni48   1.914       .  S
O43         C686   1.281       .  A
O44         Ni48   1.925       .  S
O44         C685   1.283       .  A
O45         Ni48   1.923       .  S
O45          C50   1.282       .  A
O46         Ni48   1.918       .  S
O46          C49   1.282       .  A
Ni47       Ni682   2.387       .  S
Ni48       Ni681   2.387   1_545  S
C49         C415   1.481       .  S
C49         O673   1.281   1_545  A
C50         C393   1.473       .  S
C50         O674   1.280   1_545  A
C51         C383   1.488       .  S
C51         O678   1.283       .  A
C52         C437   1.479       .  S
C52         O677   1.281       .  A
O53         Ni61   1.920       .  S
O53          C63   1.282       .  A
O54         Ni61   1.922       .  S
O54          C64   1.281       .  A
O55         Ni61   1.922       .  S
O55          C65   1.283       .  A
O56         Ni61   1.925       .  S
O56          C66   1.283       .  A
O57         Ni62   1.912       .  S
O57        C1334   1.281       .  A
O58         Ni62   1.925       .  S
O58        C1333   1.282       .  A
O59         Ni62   1.926       .  S
O59        C1332   1.283       .  A
O60         Ni62   1.920       .  S
O60        C1331   1.282       .  A
Ni61      Ni1330   2.386   1_455  S
Ni62      Ni1329   2.386       .  S
C63         C305   1.485       .  S
C63        O1328   1.282   1_455  A
C64         C339   1.476   1_455  S
C64        O1327   1.283   1_455  A
C65         C361   1.489   1_455  S
C65        O1326   1.282   1_455  A
C66         C283   1.483       .  S
C66        O1325   1.281   1_455  A
C67          C68   1.412       .  A
C67         C706   1.404       .  A
C67         C317   1.485       .  S
C68         C703   1.402       .  A
C68         C261   1.479       .  S
C69          C70   1.403       .  A
C69         C702   1.402       .  A
C69          H74   1.085       .  S
C70          C71   1.417       .  A
C70         C239   1.490       .  S
C71          C72   1.406       .  A
C71         C295   1.481       .  S
C72         C701   1.404       .  A
C72          H73   1.085       .  S
C75          C76   1.417       .  A
C75          C80   1.404   1_455  A
C75         C217   1.492   1_455  S
C76          C77   1.404       .  A
C76         C273   1.481       .  S
C77          C78   1.404       .  A
C77          H82   1.085       .  S
C78          C79   1.417       .  A
C78         C251   1.492       .  S
C79          C80   1.405   1_455  A
C79         C207   1.481   1_455  S
C80          H81   1.085       .  S
C83         C349   1.569   1_655  S
C83         C405   1.563   1_655  S
C83         C961   1.563   1_645  S
C83        C1639   1.568       .  S
C84          C85   1.419       .  A
C84          C89   1.406       .  A
C84         C229   1.489       .  S
C85          C86   1.409       .  A
C85         C185   1.489       .  S
C86         C721   1.402   1_545  A
C86          H91   1.085       .  S
C87          C88   1.412       .  A
C87         C720   1.402       .  A
C87         C151   1.483       .  S
C88         C723   1.403       .  A
C88         C195   1.482       .  S
C89         C722   1.403   1_545  A
C89          H90   1.085   1_545  S
O92        Ni100   1.921       .  S
O92         C102   1.280   1_455  A
O93        Ni100   1.913       .  S
O93         C103   1.281   1_455  A
O94        Ni100   1.930       .  S
O94         C104   1.284   1_455  A
O95        Ni100   1.934       .  S
O95         C105   1.285   1_455  A
O96        Ni101   1.916       .  S
O96        C1373   1.281       .  A
O97        Ni101   1.911       .  S
O97        C1372   1.280       .  A
O98        Ni101   1.928       .  S
O98        C1371   1.284       .  A
O99        Ni101   1.931       .  S
O99        C1370   1.283       .  A
Ni100     Ni1369   2.386   1_455  S
Ni101     Ni1368   2.386       .  S
C102        C129   1.477       .  S
C102       O1367   1.283       .  A
C103        C163   1.486       .  S
C103       O1366   1.284       .  A
C104        C173   1.481       .  S
C104       O1365   1.280       .  A
C105        C119   1.489       .  S
C105       O1364   1.281       .  A
C106        C141   1.565       .  S
C106        C459   1.568   1_545  S
C106       C2009   1.569   1_545  S
C106       C2383   1.559       .  S
C107        C112   1.418   1_655  A
C107       C1376   1.411       .  A
C107       C2008   1.569       .  S
C108        C109   1.402       .  A
C108       C1375   1.411       .  A
C108        H121   1.083       .  S
C109       C1378   1.415       .  A
C109        H122   1.078       .  S
C110        C116   1.436       .  A
C110        C111   1.417   1_655  A
C110       C1377   1.415       .  A
C111        C113   1.402       .  A
C111        C112   1.406       .  A
C112        H123   1.078       .  S
C113        C114   1.391       .  A
C113        H124   1.084       .  S
C114        C115   1.399       .  A
C114        H125   1.084       .  S
C115        C116   1.425   1_455  A
C115        C120   1.411       .  A
C116       C1385   1.413       .  A
C117        C118   1.399       .  A
C117       C1384   1.413       .  A
C117        H126   1.078       .  S
C118       C1387   1.404       .  A
C118        H127   1.083       .  S
C119        C120   1.402   1_655  A
C119       C1386   1.404       .  A
C120        H128   1.084       .  S
C129        C130   1.397       .  A
C129       C1402   1.400       .  A
C130        C131   1.404       .  A
C130        H143   1.083       .  S
C131        C132   1.420       .  A
C131        H144   1.077       .  S
C132        C138   1.436       .  A
C132       C1401   1.422       .  A
C133        C135   1.400       .  A
C133        C134   1.408       .  A
C133       C1400   1.422       .  A
C134       C1397   1.400       .  A
C134        H145   1.085       .  S
C135        C136   1.391       .  A
C135        H146   1.084       .  S
C136        C137   1.400       .  A
C136        H147   1.084       .  S
C137        C142   1.412       .  A
C137       C1406   1.423       .  A
C138        C139   1.411   1_655  A
C138       C1405   1.423       .  A
C139        C140   1.398       .  A
C139        H148   1.077       .  S
C140       C1409   1.413   1_455  A
C140        H149   1.083       .  S
C141        C142   1.411       .  A
C141       C1408   1.413       .  A
C142        H150   1.079       .  S
C151        C152   1.398   1_655  A
C151       C1424   1.401       .  A
C152        C153   1.396       .  A
C152        H165   1.084       .  S
C153        C154   1.415   1_455  A
C153        H166   1.077       .  S
C154        C160   1.431       .  A
C154       C1423   1.423       .  A
C155        C157   1.400       .  A
C155        C156   1.408       .  A
C155       C1422   1.423       .  A
C156       C1419   1.401       .  A
C156        H167   1.084       .  S
C157        C158   1.393       .  A
C157        H168   1.084       .  S
C158        C159   1.401       .  A
C158        H169   1.084       .  S
C159        C164   1.409       .  A
C159       C1428   1.423       .  A
C160        C161   1.413   1_655  A
C160       C1427   1.423       .  A
C161        C162   1.395       .  A
C161        H170   1.077       .  S
C162        C163   1.402   1_455  A
C162        H171   1.083       .  S
C163       C1432   1.404       .  A
C164       C1431   1.404       .  A
C164        H172   1.084       .  S
C173        C178   1.402   1_655  A
C173       C1442   1.400       .  A
C174       C1441   1.400       .  A
C174       C1443   1.394       .  A
C174        H187   1.083       .  S
C175        C176   1.414       .  A
C175       C1442   1.394       .  A
C175       H1456   1.077       .  S
C176        C182   1.431       .  A
C176        C177   1.423       .  A
C177        C179   1.400   1_655  A
C177        C178   1.409   1_655  A
C178        H189   1.084       .  S
C179        C180   1.392       .  A
C179        H190   1.084       .  S
C180        C181   1.400   1_455  A
C180        H191   1.084       .  S
C181        C182   1.422       .  A
C181        C186   1.408       .  A
C182        C183   1.415       .  A
C183       C1452   1.395       .  A
C183       H1460   1.077       .  S
C184       C1451   1.395       .  A
C184       C1453   1.400       .  A
C184        H193   1.084       .  S
C185        C186   1.403       .  A
C185       C1452   1.400       .  A
C186        H194   1.084   1_655  S
H188       C1443   1.077       .  S
H192       C1451   1.077       .  S
C195        C200   1.400   1_655  A
C195       C1464   1.398       .  A
C196        C197   1.396       .  A
C196       C1463   1.398       .  A
C196        H209   1.083       .  S
C197        C198   1.416       .  A
C197        H210   1.077       .  S
C198        C204   1.430       .  A
C198       C1467   1.422       .  A
C199        C201   1.399       .  A
C199        C200   1.404       .  A
C199       C1466   1.422   1_455  A
C200        H211   1.085       .  S
C201        C202   1.390       .  A
C201        H212   1.084       .  S
C202        C203   1.399       .  A
C202        H213   1.084       .  S
C203        C208   1.405       .  A
C203       C1472   1.424   1_455  A
C204        C205   1.415       .  A
C204       C1471   1.424       .  A
C205        C206   1.395       .  A
C205        H214   1.077       .  S
C206       C1475   1.399       .  A
C206        H215   1.084       .  S
C207        C208   1.399   1_655  A
C207       C1474   1.399       .  A
C208        H216   1.085       .  S
C217        C218   1.401   1_655  A
C217       C1490   1.403       .  A
C218        C219   1.399       .  A
C218        H231   1.083       .  S
C219       C1488   1.417   1_455  A
C219        H232   1.077       .  S
C220        C226   1.432       .  A
C220        C221   1.422       .  A
C220       C1487   1.417       .  A
C221        C223   1.400       .  A
C221        C222   1.406       .  A
C222       C1485   1.403       .  A
C222        H233   1.085       .  S
C223        C224   1.390       .  A
C223        H234   1.084       .  S
C224        C225   1.399       .  A
C224        H235   1.084       .  S
C225        C226   1.424       .  A
C225        C230   1.407       .  A
C226       C1495   1.414       .  A
C227        C228   1.396       .  A
C227       C1494   1.414   1_455  A
C227        H236   1.077       .  S
C228        C229   1.401   1_455  A
C228        H237   1.084       .  S
C229       C1498   1.401       .  A
C230       C1497   1.401       .  A
C230        H238   1.084       .  S
C239        C244   1.401       .  A
C239       C1508   1.402       .  A
C240        C241   1.396       .  A
C240       C1507   1.402       .  A
C240        H253   1.083       .  S
C241       C1510   1.414       .  A
C241        H254   1.077       .  S
C242        C248   1.432       .  A
C242        C243   1.424       .  A
C242       C1509   1.414   1_455  A
C243        C245   1.399       .  A
C243        C244   1.407       .  A
C244        H255   1.084       .  S
C245        C246   1.390       .  A
C245        H256   1.084       .  S
C246        C247   1.400       .  A
C246        H257   1.084       .  S
C247        C248   1.421       .  A
C247        C252   1.405       .  A
C248       C1517   1.416   1_455  A
C249        C250   1.398       .  A
C249       C1516   1.416       .  A
C249        H258   1.077       .  S
C250       C1519   1.401       .  A
C250        H259   1.083       .  S
C251        C252   1.403       .  A
C251       C1518   1.401   1_455  A
C252        H260   1.085       .  S
C261        C266   1.399       .  A
C261       C1530   1.398   1_455  A
C262        C263   1.393       .  A
C262       C1529   1.398       .  A
C262        H275   1.084       .  S
C263       C1532   1.414       .  A
C263        H276   1.077       .  S
C264        C270   1.428       .  A
C264        C265   1.424       .  A
C264       C1531   1.414   1_455  A
C265        C267   1.399       .  A
C265        C266   1.405       .  A
C266        H277   1.085       .  S
C267        C268   1.390       .  A
C267        H278   1.084       .  S
C268        C269   1.400       .  A
C268        H279   1.084       .  S
C269        C270   1.422       .  A
C269        C274   1.403       .  A
C270       C1539   1.416   1_455  A
C271        C272   1.395       .  A
C271       C1538   1.416       .  A
C271        H280   1.077       .  S
C272       C1541   1.398       .  A
C272        H281   1.083       .  S
C273        C274   1.401       .  A
C273       C1540   1.398   1_455  A
C274        H282   1.085       .  S
C283        C288   1.405       .  A
C283       C1552   1.401   1_455  A
C284        C285   1.392       .  A
C284       C1551   1.401       .  A
C284        H297   1.083       .  S
C285        C286   1.413       .  A
C285        H298   1.077       .  S
C286        C292   1.428       .  A
C286       C1555   1.422       .  A
C287        C289   1.401       .  A
C287        C288   1.409       .  A
C287       C1554   1.422       .  A
C288        H299   1.084       .  S
C289        C290   1.393       .  A
C289        H300   1.084       .  S
C290        C291   1.400       .  A
C290        H301   1.084       .  S
C291        C296   1.407       .  A
C291       C1560   1.422       .  A
C292        C293   1.415       .  A
C292       C1559   1.422       .  A
C293        C294   1.393       .  A
C293        H302   1.077       .  S
C294       C1563   1.397       .  A
C294        H303   1.084       .  S
C295        C296   1.402       .  A
C295       C1562   1.397       .  A
C296        H304   1.084       .  S
C305        C306   1.402       .  A
C305       C1578   1.403   1_455  A
C306        C307   1.398       .  A
C306        H319   1.083       .  S
C307       C1576   1.415       .  A
C307        H320   1.077       .  S
C308        C314   1.432       .  A
C308        C309   1.423       .  A
C308       C1575   1.415       .  A
C309        C311   1.399       .  A
C309        C310   1.406       .  A
C310       C1573   1.403       .  A
C310        H321   1.084       .  S
C311        C312   1.390       .  A
C311        H322   1.084       .  S
C312        C313   1.399       .  A
C312        H323   1.084       .  S
C313        C314   1.423       .  A
C313        C318   1.405       .  A
C314       C1583   1.417       .  A
C315        C316   1.398       .  A
C315       C1582   1.417       .  A
C315        H324   1.077       .  S
C316        C317   1.398       .  A
C316        H325   1.083       .  S
C317       C1586   1.400       .  A
C318       C1585   1.400       .  A
C318        H326   1.085       .  S
C327        C328   1.409   1_455  A
C327       C1600   1.416       .  A
C327        C717   1.563   1_455  S
C328        C329   1.401       .  A
C328        H341   1.078       .  S
C329        C330   1.414   1_655  A
C329        H342   1.078       .  S
C330        C336   1.433   1_455  A
C330       C1599   1.418       .  A
C331        C333   1.401       .  A
C331        C332   1.406       .  A
C331       C1598   1.418       .  A
C332       C1595   1.416       .  A
C332        H343   1.084       .  S
C333        C334   1.393       .  A
C333        H344   1.084       .  S
C334        C335   1.400       .  A
C334        H345   1.084       .  S
C335        C340   1.412       .  A
C335       C1604   1.424       .  A
C336        C337   1.414       .  A
C336       C1603   1.424   1_655  A
C337        C338   1.398       .  A
C337        H346   1.078       .  S
C338        C339   1.399       .  A
C338        H347   1.084       .  S
C339       C1608   1.400   1_655  A
C340       C1607   1.400       .  A
C340        H348   1.084       .  S
C349        C354   1.415       .  A
C349       C1618   1.412   1_455  A
C350        C351   1.405       .  A
C350       C1617   1.412       .  A
C350        H363   1.083       .  S
C351        C352   1.415       .  A
C351        H364   1.078       .  S
C352        C358   1.437       .  A
C352       C1621   1.418       .  A
C353        C355   1.400       .  A
C353        C354   1.403       .  A
C353       C1620   1.418   1_455  A
C354        H365   1.078       .  S
C355        C356   1.387       .  A
C355        H366   1.084       .  S
C356        C357   1.397       .  A
C356        H367   1.084       .  S
C357        C362   1.405       .  A
C357       C1626   1.424   1_455  A
C358        C359   1.416       .  A
C358       C1625   1.424       .  A
C359        C360   1.404       .  A
C359        H368   1.078       .  S
C360       C1629   1.405       .  A
C360        H369   1.083       .  S
C361        C362   1.401   1_655  A
C361       C1628   1.405       .  A
C362        H370   1.084       .  S
C371        C372   1.412       .  A
C371       C1010   1.416   1_545  A
C371       C1351   1.568       .  S
C372        C373   1.402       .  A
C372        H385   1.083       .  S
C373        C374   1.414       .  A
C373        H386   1.078       .  S
C374        C380   1.435       .  A
C374       C1009   1.418   1_545  A
C375        C377   1.401       .  A
C375        C376   1.405       .  A
C375       C1008   1.418       .  A
C376       C1005   1.416       .  A
C376        H387   1.078       .  S
C377        C378   1.389       .  A
C377        H388   1.084       .  S
C378        C379   1.398       .  A
C378        H389   1.084       .  S
C379        C384   1.406       .  A
C379       C1014   1.423       .  A
C380        C381   1.415       .  A
C380       C1013   1.423   1_545  A
C381        C382   1.402       .  A
C381        H390   1.078       .  S
C382       C1017   1.404       .  A
C382        H391   1.083       .  S
C383        C384   1.402       .  A
C383       C1016   1.404       .  A
C384        H392   1.084       .  S
C393        C398   1.399       .  A
C393       C1028   1.399       .  A
C394        C395   1.398       .  A
C394       C1027   1.399       .  A
C394        H407   1.084       .  S
C395       C1030   1.414       .  A
C395        H408   1.078       .  S
C396        C402   1.432       .  A
C396        C397   1.425       .  A
C396       C1029   1.414       .  A
C397        C399   1.399   1_545  A
C397        C398   1.409       .  A
C398        H409   1.084   1_545  S
C399        C400   1.392       .  A
C399        H410   1.084       .  S
C400        C401   1.401       .  A
C400        H411   1.084       .  S
C401        C402   1.417   1_565  A
C401        C406   1.404       .  A
C402       C1037   1.414       .  A
C403        C404   1.402       .  A
C403       C1036   1.414       .  A
C403        H412   1.079       .  S
C404       C1039   1.410       .  A
C404        H413   1.078       .  S
C405        C406   1.416   1_545  A
C405       C1038   1.410       .  A
C406        H414   1.084       .  S
C415        C416   1.401   1_545  A
C415       C1054   1.402       .  A
C416       C1051   1.395       .  A
C416        H429   1.083       .  S
C417        C418   1.414       .  A
C417       C1050   1.395       .  A
C417        H430   1.077       .  S
C418        C424   1.428       .  A
C418        C419   1.422       .  A
C419        C421   1.400       .  A
C419        C420   1.405       .  A
C420       C1049   1.402       .  A
C420        H431   1.084       .  S
C421        C422   1.390       .  A
C421        H432   1.084       .  S
C422        C423   1.399       .  A
C422        H433   1.084       .  S
C423        C424   1.423       .  A
C423        C428   1.404       .  A
C424        C425   1.415       .  A
C425       C1060   1.395       .  A
C425        H434   1.077       .  S
C426        C427   1.397   1_565  A
C426       C1059   1.395       .  A
C426        H435   1.084       .  S
C427       C1062   1.398       .  A
C428       C1061   1.398       .  A
C428        H436   1.085       .  S
C437        C438   1.401       .  A
C437       C1076   1.401       .  A
C438        C439   1.399       .  A
C438        H451   1.083       .  S
C439       C1074   1.416       .  A
C439        H452   1.077       .  S
C440        C446   1.431       .  A
C440        C441   1.422       .  A
C440       C1073   1.416   1_545  A
C441        C443   1.399       .  A
C441        C442   1.403       .  A
C442       C1071   1.401       .  A
C442        H453   1.085       .  S
C443        C444   1.388       .  A
C443        H454   1.084       .  S
C444        C445   1.398       .  A
C444        H455   1.084       .  S
C445        C446   1.423       .  A
C445        C450   1.403       .  A
C446       C1081   1.416   1_545  A
C447        C448   1.398       .  A
C447       C1080   1.416       .  A
C447        H456   1.077       .  S
C448       C1083   1.400       .  A
C448        H457   1.083       .  S
C449        C450   1.398       .  A
C449       C1082   1.400   1_545  A
C450        H458   1.085       .  S
C459        C464   1.416   1_565  A
C459       C1094   1.413       .  A
C460        C461   1.401       .  A
C460       C1093   1.413       .  A
C460        H473   1.083       .  S
C461        C462   1.413       .  A
C461        H474   1.078       .  S
C462        C468   1.433       .  A
C462       C1097   1.417       .  A
C463        C465   1.401       .  A
C463        C464   1.404       .  A
C463       C1096   1.417   1_545  A
C464        H475   1.077       .  S
C465        C466   1.389       .  A
C465        H476   1.084       .  S
C466        C467   1.398       .  A
C466        H477   1.084       .  S
C467        C472   1.406       .  A
C467       C1102   1.423   1_545  A
C468        C469   1.414       .  A
C468       C1101   1.423       .  A
C469        C470   1.400       .  A
C469        H478   1.078       .  S
C470       C1105   1.404       .  A
C470        H479   1.083       .  S
C471        C472   1.402   1_565  A
C471       C1104   1.404       .  A
C472        H480   1.084       .  S
C481        C482   1.409       .  A
C481       C1120   1.414       .  A
C481       C2008   1.559   1_455  S
C482       C1117   1.400       .  A
C482        H495   1.078       .  S
C483        C484   1.414       .  A
C483       C1116   1.400       .  A
C483        H496   1.078       .  S
C484        C490   1.431       .  A
C484        C485   1.417   1_565  A
C485        C487   1.401       .  A
C485        C486   1.405       .  A
C486       C1115   1.414       .  A
C486        H497   1.084       .  S
C487        C488   1.392       .  A
C487        H498   1.084       .  S
C488        C489   1.399   1_545  A
C488        H499   1.084       .  S
C489        C490   1.425       .  A
C489        C494   1.410       .  A
C490        C491   1.414       .  A
C491       C1126   1.396       .  A
C491        H500   1.078       .  S
C492        C493   1.398       .  A
C492       C1125   1.396       .  A
C492        H501   1.084       .  S
C493       C1128   1.398       .  A
C494       C1127   1.398       .  A
C494        H502   1.084   1_565  S
C503        C504   1.398   1_545  A
C503        C508   1.400       .  A
C504        C505   1.394       .  A
C504       H1151   1.084       .  S
C505        C506   1.415       .  A
C505        H518   1.077       .  S
C506        C512   1.429       .  A
C506        C507   1.423   1_565  A
C507        C509   1.399       .  A
C507        C508   1.404       .  A
C508        H519   1.085       .  S
C509        C510   1.390       .  A
C509        H520   1.084       .  S
C510        C511   1.399       .  A
C510        H521   1.084       .  S
C511        C512   1.423   1_545  A
C511        C516   1.404       .  A
C512        C513   1.416       .  A
C513        C514   1.395       .  A
C513        H522   1.077       .  S
C514        C515   1.398       .  A
C514       H1157   1.083   1_556  S
C515        C516   1.399   1_565  A
C516        H524   1.085       .  S
H517       C1138   1.084       .  S
H523       C1148   1.083   1_554  S
C525        C530   1.399   1_565  A
C525       C1160   1.398       .  A
C526        C527   1.395       .  A
C526       C1159   1.398       .  A
C526        H539   1.083   1_556  S
C527       C1162   1.416       .  A
C527        H540   1.077       .  S
C528        C534   1.428       .  A
C528        C529   1.423   1_565  A
C528       C1161   1.416       .  A
C529        C531   1.399       .  A
C529        C530   1.402       .  A
C530        H541   1.085       .  S
C531        C532   1.388       .  A
C531        H542   1.084       .  S
C532        C533   1.398       .  A
C532        H543   1.084       .  S
C533        C534   1.423   1_545  A
C533        C538   1.402       .  A
C534       C1169   1.415       .  A
C535        C536   1.394       .  A
C535       C1168   1.415       .  A
C535        H544   1.077       .  S
C536       C1171   1.398       .  A
C536        H545   1.084       .  S
C537        C538   1.398   1_565  A
C537       C1170   1.398       .  A
C538        H546   1.085       .  S
C547        C548   1.400       .  A
C547       C1186   1.403       .  A
C548        C549   1.395       .  A
C548        H561   1.083       .  S
C549        C550   1.415       .  A
C549        H562   1.077       .  S
C550        C556   1.429       .  A
C550        C551   1.422       .  A
C551       C1187   1.400       .  A
C551       C1186   1.405       .  A
C552       C1181   1.403   1_545  A
C552       C1185   1.405       .  A
C552        H563   1.084       .  S
C553        C554   1.390       .  A
C553       C1185   1.400       .  A
C553        H564   1.084       .  S
C554       C1189   1.399       .  A
C554        H565   1.084       .  S
C555        C556   1.424       .  A
C555       C1188   1.399       .  A
C555       C1194   1.405       .  A
C556        C557   1.415       .  A
C557        C558   1.394       .  A
C557        H566   1.077       .  S
C558        C559   1.397       .  A
C558        H567   1.084       .  S
C559       C1194   1.399       .  A
C560       C1189   1.405       .  A
C560       C1193   1.399   1_545  A
C560        H568   1.085       .  S
C569        C574   1.402   1_565  A
C569       C1204   1.401       .  A
C570       C1203   1.401       .  A
C570       C1205   1.394       .  A
C570        H583   1.083       .  S
C571        C572   1.414       .  A
C571       C1204   1.394       .  A
C571        H584   1.077       .  S
C572        C578   1.429       .  A
C572        C573   1.422   1_565  A
C573        C575   1.400       .  A
C573        C574   1.405       .  A
C574        H585   1.084       .  S
C575        C576   1.390       .  A
C575        H586   1.084       .  S
C576        C577   1.399       .  A
C576        H587   1.084       .  S
C577        C578   1.423   1_545  A
C577        C582   1.404       .  A
C578        C579   1.415       .  A
C579       C1214   1.394       .  A
C579        H588   1.077       .  S
C580       C1213   1.394       .  A
C580       C1215   1.397       .  A
C580        H589   1.084       .  S
C581        C582   1.398   1_565  A
C581       C1214   1.397       .  A
C581        C635   1.476       .  S
C582        H590   1.085       .  S
C591        C596   1.399   1_565  A
C591       C1226   1.398       .  A
C592        C593   1.395       .  A
C592       C1225   1.398       .  A
C592        H605   1.083       .  S
C593       C1228   1.415       .  A
C593        H606   1.077       .  S
C594        C600   1.428       .  A
C594        C595   1.423   1_565  A
C594       C1227   1.415       .  A
C595        C597   1.399       .  A
C595        C596   1.404       .  A
C596        H607   1.085       .  S
C597        C598   1.389       .  A
C597        H608   1.084       .  S
C598        C599   1.399       .  A
C598        H609   1.084       .  S
C599        C600   1.424   1_545  A
C599        C604   1.404       .  A
C600       C1235   1.415       .  A
C601        C602   1.394       .  A
C601       C1234   1.415       .  A
C601        H610   1.077       .  S
C602       C1237   1.398       .  A
C602        H611   1.084       .  S
C603        C604   1.398   1_565  A
C603       C1236   1.398       .  A
C604        H612   1.085       .  S
C613        C618   1.401   1_565  A
C613       C1248   1.399       .  A
C614        C615   1.393       .  A
C614       C1247   1.399       .  A
C614        H627   1.084       .  S
C615       C1250   1.414       .  A
C615        H628   1.077       .  S
C616        C622   1.428       .  A
C616        C617   1.423   1_565  A
C616       C1249   1.414       .  A
C617        C619   1.399       .  A
C617        C618   1.405       .  A
C618        H629   1.084       .  S
C619        C620   1.390       .  A
C619        H630   1.084       .  S
C620        C621   1.400       .  A
C620        H631   1.084       .  S
C621        C622   1.422   1_545  A
C621        C626   1.405       .  A
C622       C1257   1.415       .  A
C623        C624   1.394       .  A
C623       C1256   1.415       .  A
C623        H632   1.077       .  S
C624       C1259   1.399       .  A
C624        H633   1.083       .  S
C625        C626   1.401   1_565  A
C625       C1258   1.399       .  A
C626        H634   1.085       .  S
C635        C640   1.399   1_455  A
C636       C1905   1.405   1_455  A
C636       C1259   1.485       .  S
C637       C1904   1.405       .  A
C637        C638   1.405       .  A
C637       H1910   1.084       .  S
C638       C1225   1.480       .  S
C639       C1908   1.399       .  A
C639       C1193   1.478       .  S
C640       C1907   1.399       .  A
C640       H1909   1.085       .  S
H641       C1908   1.085       .  S
H642       C1905   1.084       .  S
C643        C644   1.416       .  A
C643        C648   1.404   1_554  A
C643       C1159   1.480   1_554  S
C644        C645   1.402       .  A
C644       C1247   1.484       .  S
C645        C646   1.400       .  A
C645        H650   1.085       .  S
C646        C647   1.412       .  A
C646       C1237   1.477       .  S
C647        C648   1.401   1_554  A
C647       C1149   1.480   1_554  S
C648        H649   1.085       .  S
O651       Ni659   1.919       .  S
O652       Ni659   1.917       .  S
O653       Ni659   1.920       .  S
O653        C663   1.282       .  A
O654       Ni659   1.922       .  S
O654        C664   1.283       .  A
O655       Ni660   1.920       .  S
O656       Ni660   1.913       .  S
O657       Ni660   1.917       .  S
O657        C662   1.282       .  A
O658       Ni660   1.922       .  S
O658        C661   1.281       .  A
C661       C1127   1.471       .  S
C662       C1181   1.480       .  S
C663       C1203   1.480       .  S
C664       C1105   1.485       .  S
C665        C666   1.414       .  A
C665        C670   1.403   1_455  A
C665       C1083   1.483       .  S
C666        C667   1.403   1_455  A
C666       C1171   1.479       .  S
C667       C1936   1.401       .  A
C667        H672   1.085       .  S
C668       C1935   1.401       .  A
C668        C669   1.410       .  A
C668       C1137   1.480       .  S
C669       C1938   1.402       .  A
C669       C1061   1.475       .  S
C670       C1937   1.402       .  A
C670        H671   1.085       .  S
O673       Ni681   1.915       .  S
O674       Ni681   1.920       .  S
O675       Ni681   1.922       .  S
O675        C685   1.283   1_565  A
O676       Ni681   1.921       .  S
O676        C686   1.282   1_565  A
O677       Ni682   1.914       .  S
O678       Ni682   1.925       .  S
O679       Ni682   1.923       .  S
O679        C684   1.282       .  A
O680       Ni682   1.918       .  S
O680        C683   1.282       .  A
C683       C1049   1.481       .  S
C684       C1027   1.473       .  S
C685       C1017   1.488       .  S
C686       C1071   1.479       .  S
O687       Ni695   1.920       .  S
O687        C697   1.282       .  A
O688       Ni695   1.922       .  S
O688        C698   1.281       .  A
O689       Ni695   1.922       .  S
O689        C699   1.283       .  A
O690       Ni695   1.925       .  S
O690        C700   1.283       .  A
O691       Ni696   1.912       .  S
O691       C1968   1.281       .  A
O692       Ni696   1.925       .  S
O692       C1967   1.282       .  A
O693       Ni696   1.926       .  S
O693       C1966   1.283       .  A
O694       Ni696   1.920       .  S
O694       C1965   1.282       .  A
Ni695     Ni1964   2.386   1_455  S
Ni696     Ni1963   2.386       .  S
C697        C939   1.485       .  S
C697       O1962   1.282   1_455  A
C698        C973   1.476   1_455  S
C698       O1961   1.283   1_455  A
C699        C995   1.489   1_455  S
C699       O1960   1.282   1_455  A
C700        C917   1.483       .  S
C700       O1959   1.281   1_455  A
C701        C702   1.412       .  A
C701        C951   1.485       .  S
C702        C895   1.479       .  S
C703        C704   1.403   1_545  A
C703        H708   1.085       .  S
C704        C705   1.417       .  A
C704        C873   1.490       .  S
C705        C706   1.406   1_565  A
C705        C929   1.481       .  S
C706        H707   1.085       .  S
C709        C710   1.417       .  A
C709        C714   1.404   1_455  A
C709        C851   1.492   1_455  S
C710        C711   1.404       .  A
C710        C907   1.481       .  S
C711        C712   1.404       .  A
C711        H716   1.085       .  S
C712        C713   1.417       .  A
C712        C885   1.492       .  S
C713        C714   1.405   1_455  A
C713        C841   1.481   1_455  S
C714        H715   1.085       .  S
C717        C983   1.569   1_655  S
C717       C2273   1.568       .  S
C717       C1039   1.563   1_655  S
C718        C719   1.419       .  A
C718        C723   1.406       .  A
C718        C863   1.489       .  S
C719        C720   1.409       .  A
C719        C819   1.489       .  S
C720        H725   1.085       .  S
C721        C722   1.411       .  A
C721        C785   1.483       .  S
C722        C829   1.482       .  S
C723        H724   1.085       .  S
O726       Ni734   1.921       .  S
O726        C736   1.280   1_455  A
O727       Ni734   1.913       .  S
O727        C737   1.281   1_455  A
O728       Ni734   1.930       .  S
O728        C738   1.284   1_455  A
O729       Ni734   1.934       .  S
O729        C739   1.285   1_455  A
O730       Ni735   1.916       .  S
O730       C2007   1.281       .  A
O731       Ni735   1.911       .  S
O731       C2006   1.280       .  A
O732       Ni735   1.928       .  S
O732       C2005   1.284       .  A
O733       Ni735   1.931       .  S
O733       C2004   1.283       .  A
Ni734     Ni2003   2.386   1_455  S
Ni735     Ni2002   2.386       .  S
C736        C763   1.477       .  S
C736       O2001   1.283       .  A
C737        C797   1.486       .  S
C737       O2000   1.284       .  A
C738        C807   1.481       .  S
C738       O1999   1.280       .  A
C739        C753   1.489       .  S
C739       O1998   1.281       .  A
C740       C1375   1.569       .  S
C740        C775   1.565       .  S
C740       C1093   1.568       .  S
C740       C1749   1.559       .  S
C741       C2010   1.411       .  A
C741        C746   1.418   1_655  A
C741       C1374   1.569   1_565  S
C742       C2009   1.411       .  A
C742        C743   1.402       .  A
C742        H755   1.083       .  S
C743       C2012   1.415       .  A
C743        H756   1.078       .  S
C744       C2011   1.415       .  A
C744        C750   1.436       .  A
C744        C745   1.417   1_655  A
C745        C747   1.402       .  A
C745        C746   1.406       .  A
C746        H757   1.078       .  S
C747        C748   1.391       .  A
C747        H758   1.084       .  S
C748        C749   1.399       .  A
C748        H759   1.084       .  S
C749        C750   1.425   1_455  A
C749        C754   1.411       .  A
C750       C2019   1.413       .  A
C751       C2018   1.413       .  A
C751        C752   1.399       .  A
C751        H760   1.078       .  S
C752       C2021   1.404       .  A
C752        H761   1.083       .  S
C753       C2020   1.404       .  A
C753        C754   1.402   1_655  A
C754        H762   1.084       .  S
C763        C764   1.397       .  A
C763       C2036   1.400       .  A
C764        C765   1.404       .  A
C764        H777   1.083       .  S
C765        C766   1.420       .  A
C765        H778   1.077       .  S
C766        C772   1.436       .  A
C766       C2035   1.422       .  A
C767       C2034   1.422       .  A
C767        C769   1.400       .  A
C767        C768   1.408       .  A
C768       C2031   1.400       .  A
C768        H779   1.085       .  S
C769        C770   1.391       .  A
C769        H780   1.084       .  S
C770        C771   1.400       .  A
C770        H781   1.084       .  S
C771       C2040   1.423       .  A
C771        C776   1.412       .  A
C772       C2039   1.423       .  A
C772        C773   1.411   1_655  A
C773        C774   1.398       .  A
C773        H782   1.077       .  S
C774       C2043   1.413   1_455  A
C774        H783   1.083       .  S
C775       C2042   1.413       .  A
C775        C776   1.411       .  A
C776        H784   1.079       .  S
C785        C786   1.398   1_655  A
C785       C2058   1.401       .  A
C786        C787   1.396       .  A
C786        H799   1.084       .  S
C787        C788   1.415   1_455  A
C787        H800   1.077       .  S
C788        C794   1.431       .  A
C788       C2057   1.423       .  A
C789       C2056   1.423       .  A
C789        C791   1.400       .  A
C789        C790   1.408       .  A
C790       C2053   1.401       .  A
C790        H801   1.084       .  S
C791        C792   1.393       .  A
C791        H802   1.084       .  S
C792        C793   1.401       .  A
C792        H803   1.084       .  S
C793       C2062   1.423       .  A
C793        C798   1.409       .  A
C794       C2061   1.423       .  A
C794        C795   1.413   1_655  A
C795        C796   1.395       .  A
C795        H804   1.077       .  S
C796        C797   1.402   1_455  A
C796        H805   1.083       .  S
C797       C2066   1.404       .  A
C798       C2065   1.404       .  A
C798        H806   1.084       .  S
C807       C2076   1.400       .  A
C807        C812   1.402   1_655  A
C808       C2075   1.400       .  A
C808       C2077   1.394       .  A
C808        H821   1.083       .  S
C809       C2076   1.394       .  A
C809        C810   1.414       .  A
C809       H2090   1.077       .  S
C810        C816   1.431       .  A
C810        C811   1.423       .  A
C811        C813   1.400   1_655  A
C811        C812   1.409   1_655  A
C812        H823   1.084       .  S
C813        C814   1.392       .  A
C813        H824   1.084       .  S
C814        C815   1.400   1_455  A
C814        H825   1.084       .  S
C815        C816   1.422       .  A
C815        C820   1.408       .  A
C816        C817   1.415       .  A
C817       C2086   1.395       .  A
C817       H2094   1.077       .  S
C818       C2085   1.395       .  A
C818       C2087   1.400       .  A
C818        H827   1.084       .  S
C819       C2086   1.400       .  A
C819        C820   1.403       .  A
C820        H828   1.084   1_655  S
H822       C2077   1.077       .  S
H826       C2085   1.077       .  S
C829       C2098   1.398       .  A
C829        C834   1.400   1_655  A
C830       C2097   1.398       .  A
C830        C831   1.396       .  A
C830        H843   1.083       .  S
C831        C832   1.416       .  A
C831        H844   1.077       .  S
C832        C838   1.430       .  A
C832       C2101   1.422       .  A
C833       C2100   1.422   1_455  A
C833        C835   1.399       .  A
C833        C834   1.404       .  A
C834        H845   1.085       .  S
C835        C836   1.390       .  A
C835        H846   1.084       .  S
C836        C837   1.399       .  A
C836        H847   1.084       .  S
C837       C2106   1.424   1_455  A
C837        C842   1.405       .  A
C838       C2105   1.424       .  A
C838        C839   1.415       .  A
C839        C840   1.395       .  A
C839        H848   1.077       .  S
C840       C2109   1.399       .  A
C840        H849   1.084       .  S
C841       C2108   1.399       .  A
C841        C842   1.399   1_655  A
C842        H850   1.085       .  S
C851        C852   1.401   1_655  A
C851       C2124   1.403       .  A
C852        C853   1.399       .  A
C852        H865   1.083       .  S
C853       C2122   1.417   1_455  A
C853        H866   1.077       .  S
C854       C2121   1.417       .  A
C854        C860   1.432       .  A
C854        C855   1.422       .  A
C855        C857   1.400       .  A
C855        C856   1.406       .  A
C856       C2119   1.403       .  A
C856        H867   1.085       .  S
C857        C858   1.390       .  A
C857        H868   1.084       .  S
C858        C859   1.399       .  A
C858        H869   1.084       .  S
C859        C860   1.424       .  A
C859        C864   1.407       .  A
C860       C2129   1.414       .  A
C861       C2128   1.414   1_455  A
C861        C862   1.396       .  A
C861        H870   1.077       .  S
C862        C863   1.401   1_455  A
C862        H871   1.084       .  S
C863       C2132   1.401       .  A
C864       C2131   1.401       .  A
C864        H872   1.084       .  S
C873       C2142   1.402       .  A
C873        C878   1.401       .  A
C874       C2141   1.402       .  A
C874        C875   1.396       .  A
C874        H887   1.083       .  S
C875       C2144   1.414       .  A
C875        H888   1.077       .  S
C876       C2143   1.414   1_455  A
C876        C882   1.432       .  A
C876        C877   1.424       .  A
C877        C879   1.399       .  A
C877        C878   1.407       .  A
C878        H889   1.084       .  S
C879        C880   1.390       .  A
C879        H890   1.084       .  S
C880        C881   1.400       .  A
C880        H891   1.084       .  S
C881        C882   1.421       .  A
C881        C886   1.405       .  A
C882       C2151   1.416   1_455  A
C883       C2150   1.416       .  A
C883        C884   1.398       .  A
C883        H892   1.077       .  S
C884       C2153   1.401       .  A
C884        H893   1.083       .  S
C885       C2152   1.401   1_455  A
C885        C886   1.403       .  A
C886        H894   1.085       .  S
C895       C2164   1.398   1_455  A
C895        C900   1.399       .  A
C896       C2163   1.398       .  A
C896        C897   1.393       .  A
C896        H909   1.084       .  S
C897       C2166   1.414       .  A
C897        H910   1.077       .  S
C898       C2165   1.414   1_455  A
C898        C904   1.428       .  A
C898        C899   1.424       .  A
C899        C901   1.399       .  A
C899        C900   1.405       .  A
C900        H911   1.085       .  S
C901        C902   1.390       .  A
C901        H912   1.084       .  S
C902        C903   1.400       .  A
C902        H913   1.084       .  S
C903        C904   1.422       .  A
C903        C908   1.403       .  A
C904       C2173   1.416   1_455  A
C905       C2172   1.416       .  A
C905        C906   1.395       .  A
C905        H914   1.077       .  S
C906       C2175   1.398       .  A
C906        H915   1.083       .  S
C907       C2174   1.398   1_455  A
C907        C908   1.401       .  A
C908        H916   1.085       .  S
C917       C2186   1.401   1_455  A
C917        C922   1.405       .  A
C918       C2185   1.401       .  A
C918        C919   1.392       .  A
C918        H931   1.083       .  S
C919        C920   1.413       .  A
C919        H932   1.077       .  S
C920        C926   1.428       .  A
C920       C2189   1.422       .  A
C921       C2188   1.422       .  A
C921        C923   1.401       .  A
C921        C922   1.409       .  A
C922        H933   1.084       .  S
C923        C924   1.393       .  A
C923        H934   1.084       .  S
C924        C925   1.400       .  A
C924        H935   1.084       .  S
C925       C2194   1.422       .  A
C925        C930   1.407       .  A
C926       C2193   1.422       .  A
C926        C927   1.415       .  A
C927        C928   1.393       .  A
C927        H936   1.077       .  S
C928       C2197   1.397       .  A
C928        H937   1.084       .  S
C929       C2196   1.397       .  A
C929        C930   1.402       .  A
C930        H938   1.084       .  S
C939        C940   1.402       .  A
C939       C2212   1.403   1_455  A
C940        C941   1.398       .  A
C940        H953   1.083       .  S
C941       C2210   1.415       .  A
C941        H954   1.077       .  S
C942       C2209   1.415       .  A
C942        C948   1.432       .  A
C942        C943   1.423       .  A
C943        C945   1.399       .  A
C943        C944   1.406       .  A
C944       C2207   1.403       .  A
C944        H955   1.084       .  S
C945        C946   1.390       .  A
C945        H956   1.084       .  S
C946        C947   1.399       .  A
C946        H957   1.084       .  S
C947        C948   1.423       .  A
C947        C952   1.405       .  A
C948       C2217   1.417       .  A
C949       C2216   1.417       .  A
C949        C950   1.398       .  A
C949        H958   1.077       .  S
C950        C951   1.398       .  A
C950        H959   1.083       .  S
C951       C2220   1.400       .  A
C952       C2219   1.400       .  A
C952        H960   1.085       .  S
C961        C962   1.409   1_455  A
C961       C2234   1.416       .  A
C962        C963   1.401       .  A
C962        H975   1.078       .  S
C963        C964   1.414   1_655  A
C963        H976   1.078       .  S
C964        C970   1.433   1_455  A
C964       C2233   1.418       .  A
C965       C2232   1.418       .  A
C965        C967   1.401       .  A
C965        C966   1.406       .  A
C966       C2229   1.416       .  A
C966        H977   1.084       .  S
C967        C968   1.393       .  A
C967        H978   1.084       .  S
C968        C969   1.400       .  A
C968        H979   1.084       .  S
C969       C2238   1.424       .  A
C969        C974   1.412       .  A
C970       C2237   1.424   1_655  A
C970        C971   1.414       .  A
C971        C972   1.398       .  A
C971        H980   1.078       .  S
C972        C973   1.399       .  A
C972        H981   1.084       .  S
C973       C2242   1.400   1_655  A
C974       C2241   1.400       .  A
C974        H982   1.084       .  S
C983       C2252   1.412   1_455  A
C983        C988   1.415       .  A
C984       C2251   1.412       .  A
C984        C985   1.405       .  A
C984        H997   1.083       .  S
C985        C986   1.415       .  A
C985        H998   1.078       .  S
C986        C992   1.437       .  A
C986       C2255   1.418       .  A
C987       C2254   1.418   1_455  A
C987        C989   1.400       .  A
C987        C988   1.403       .  A
C988        H999   1.078       .  S
C989        C990   1.387       .  A
C989       H1000   1.084       .  S
C990        C991   1.397       .  A
C990       H1001   1.084       .  S
C991       C2260   1.424   1_455  A
C991        C996   1.405       .  A
C992       C2259   1.424       .  A
C992        C993   1.416       .  A
C993        C994   1.404       .  A
C993       H1002   1.078       .  S
C994       C2263   1.405       .  A
C994       H1003   1.083       .  S
C995       C2262   1.405       .  A
C995        C996   1.401   1_655  A
C996       H1004   1.084       .  S
C1005      C1006   1.412       .  A
C1005      C1985   1.568       .  S
C1006      C1007   1.402       .  A
C1006      H1019   1.083       .  S
C1007      C1008   1.414       .  A
C1007      H1020   1.078       .  S
C1008      C1014   1.435       .  A
C1009      C1011   1.401       .  A
C1009      C1010   1.405       .  A
C1010      H1021   1.078       .  S
C1011      C1012   1.389       .  A
C1011      H1022   1.084       .  S
C1012      C1013   1.398       .  A
C1012      H1023   1.084       .  S
C1013      C1018   1.407       .  A
C1014      C1015   1.415       .  A
C1015      C1016   1.402       .  A
C1015      H1024   1.078       .  S
C1016      H1025   1.083       .  S
C1017      C1018   1.402   1_545  A
C1018      H1026   1.084       .  S
C1027      C1032   1.399       .  A
C1028      C1029   1.398       .  A
C1028      H1041   1.084       .  S
C1029      H1042   1.078       .  S
C1030      C1036   1.432       .  A
C1030      C1031   1.425       .  A
C1031      C1033   1.399       .  A
C1031      C1032   1.409       .  A
C1032      H1043   1.084       .  S
C1033      C1034   1.392       .  A
C1033      H1044   1.084       .  S
C1034      C1035   1.401       .  A
C1034      H1045   1.084       .  S
C1035      C1036   1.417       .  A
C1035      C1040   1.404       .  A
C1037      C1038   1.402       .  A
C1037      H1046   1.079       .  S
C1038      H1047   1.078       .  S
C1039      C1040   1.416       .  A
C1040      H1048   1.084       .  S
C1049      C1050   1.401       .  A
C1050      H1063   1.083       .  S
C1051      C1052   1.414   1_565  A
C1051      H1064   1.077       .  S
C1052      C1058   1.428       .  A
C1052      C1053   1.422       .  A
C1053      C1055   1.400       .  A
C1053      C1054   1.405       .  A
C1054      H1065   1.084       .  S
C1055      C1056   1.390       .  A
C1055      H1066   1.084       .  S
C1056      C1057   1.399       .  A
C1056      H1067   1.084       .  S
C1057      C1058   1.423       .  A
C1057      C1062   1.404       .  A
C1058      C1059   1.415   1_545  A
C1059      H1068   1.077       .  S
C1060      C1061   1.397       .  A
C1060      H1069   1.084       .  S
C1062      H1070   1.085       .  S
C1071      C1072   1.401   1_545  A
C1072      C1073   1.399       .  A
C1072      H1085   1.083       .  S
C1073      H1086   1.077       .  S
C1074      C1080   1.431       .  A
C1074      C1075   1.422       .  A
C1075      C1077   1.399       .  A
C1075      C1076   1.403       .  A
C1076      H1087   1.085       .  S
C1077      C1078   1.388       .  A
C1077      H1088   1.084       .  S
C1078      C1079   1.398       .  A
C1078      H1089   1.084       .  S
C1079      C1080   1.423       .  A
C1079      C1084   1.403       .  A
C1081      C1082   1.398       .  A
C1081      H1090   1.077       .  S
C1082      H1091   1.083       .  S
C1083      C1084   1.398       .  A
C1084      H1092   1.085       .  S
C1093      C1098   1.416       .  A
C1094      C1095   1.401       .  A
C1094      H1107   1.083       .  S
C1095      C1096   1.413       .  A
C1095      H1108   1.078       .  S
C1096      C1102   1.433       .  A
C1097      C1099   1.401       .  A
C1097      C1098   1.404       .  A
C1098      H1109   1.077       .  S
C1099      C1100   1.389       .  A
C1099      H1110   1.084       .  S
C1100      C1101   1.398       .  A
C1100      H1111   1.084       .  S
C1101      C1106   1.406       .  A
C1102      C1103   1.414       .  A
C1103      C1104   1.400       .  A
C1103      H1112   1.078       .  S
C1104      H1113   1.083       .  S
C1105      C1106   1.402       .  A
C1106      H1114   1.084       .  S
C1115      C1116   1.409   1_545  A
C1115      C1374   1.559   1_455  S
C1116      H1129   1.078       .  S
C1117      C1118   1.414       .  A
C1117      H1130   1.078       .  S
C1118      C1124   1.431       .  A
C1118      C1119   1.417       .  A
C1119      C1121   1.401       .  A
C1119      C1120   1.405       .  A
C1120      H1131   1.084       .  S
C1121      C1122   1.392       .  A
C1121      H1132   1.084       .  S
C1122      C1123   1.399       .  A
C1122      H1133   1.084       .  S
C1123      C1124   1.425       .  A
C1123      C1128   1.410       .  A
C1124      C1125   1.414       .  A
C1125      H1134   1.078       .  S
C1126      C1127   1.398       .  A
C1126      H1135   1.084       .  S
C1128      H1136   1.084       .  S
C1137      C1138   1.398       .  A
C1137      C1142   1.400       .  A
C1138      C1139   1.394       .  A
C1139      C1140   1.415       .  A
C1139      H1152   1.077       .  S
C1140      C1146   1.429       .  A
C1140      C1141   1.423       .  A
C1141      C1143   1.399       .  A
C1141      C1142   1.404       .  A
C1142      H1153   1.085       .  S
C1143      C1144   1.390       .  A
C1143      H1154   1.084       .  S
C1144      C1145   1.399       .  A
C1144      H1155   1.084       .  S
C1145      C1146   1.423       .  A
C1145      C1150   1.404       .  A
C1146      C1147   1.416       .  A
C1147      C1148   1.395       .  A
C1147      H1156   1.077       .  S
C1148      C1149   1.398       .  A
C1149      C1150   1.399       .  A
C1150      H1158   1.085       .  S
C1159      C1164   1.399       .  A
C1160      C1161   1.395       .  A
C1160      H1173   1.083   1_556  S
C1161      H1174   1.077       .  S
C1162      C1168   1.428       .  A
C1162      C1163   1.423       .  A
C1163      C1165   1.399       .  A
C1163      C1164   1.402       .  A
C1164      H1175   1.085       .  S
C1165      C1166   1.388       .  A
C1165      H1176   1.084       .  S
C1166      C1167   1.398       .  A
C1166      H1177   1.084       .  S
C1167      C1168   1.423       .  A
C1167      C1172   1.402       .  A
C1169      C1170   1.394       .  A
C1169      H1178   1.077       .  S
C1170      H1179   1.084       .  S
C1171      C1172   1.398       .  A
C1172      H1180   1.085       .  S
C1181      C1182   1.400       .  A
C1182      C1183   1.395       .  A
C1182      H1195   1.083       .  S
C1183      C1184   1.415       .  A
C1183      H1196   1.077       .  S
C1184      C1190   1.429       .  A
C1184      C1185   1.422   1_565  A
C1186      H1197   1.084       .  S
C1187      C1188   1.390       .  A
C1187      H1198   1.084       .  S
C1188      H1199   1.084       .  S
C1189      C1190   1.424   1_545  A
C1190      C1191   1.415       .  A
C1191      C1192   1.394       .  A
C1191      H1200   1.077       .  S
C1192      C1193   1.397       .  A
C1192      H1201   1.084       .  S
C1194      H1202   1.085       .  S
C1203      C1208   1.402       .  A
C1204      H1217   1.083       .  S
C1205      C1206   1.414       .  A
C1205      H1218   1.077       .  S
C1206      C1212   1.429       .  A
C1206      C1207   1.422       .  A
C1207      C1209   1.400       .  A
C1207      C1208   1.405       .  A
C1208      H1219   1.084       .  S
C1209      C1210   1.390       .  A
C1209      H1220   1.084       .  S
C1210      C1211   1.399       .  A
C1210      H1221   1.084       .  S
C1211      C1212   1.423       .  A
C1211      C1216   1.404       .  A
C1212      C1213   1.415       .  A
C1213      H1222   1.077       .  S
C1214      H1223   1.084       .  S
C1215      C1216   1.398       .  A
C1216      H1224   1.085       .  S
C1225      C1230   1.399       .  A
C1226      C1227   1.395       .  A
C1226      H1239   1.083       .  S
C1227      H1240   1.077       .  S
C1228      C1234   1.428       .  A
C1228      C1229   1.423       .  A
C1229      C1231   1.399       .  A
C1229      C1230   1.404       .  A
C1230      H1241   1.085       .  S
C1231      C1232   1.389       .  A
C1231      H1242   1.084       .  S
C1232      C1233   1.399       .  A
C1232      H1243   1.084       .  S
C1233      C1234   1.424       .  A
C1233      C1238   1.404       .  A
C1235      C1236   1.394       .  A
C1235      H1244   1.077       .  S
C1236      H1245   1.084       .  S
C1237      C1238   1.398       .  A
C1238      H1246   1.085       .  S
C1247      C1252   1.401       .  A
C1248      C1249   1.393       .  A
C1248      H1261   1.084       .  S
C1249      H1262   1.077       .  S
C1250      C1256   1.428       .  A
C1250      C1251   1.423       .  A
C1251      C1253   1.399       .  A
C1251      C1252   1.405       .  A
C1252      H1263   1.084       .  S
C1253      C1254   1.390       .  A
C1253      H1264   1.084       .  S
C1254      C1255   1.400       .  A
C1254      H1265   1.084       .  S
C1255      C1256   1.422       .  A
C1255      C1260   1.405       .  A
C1257      C1258   1.394       .  A
C1257      H1266   1.077       .  S
C1258      H1267   1.083       .  S
C1259      C1260   1.401       .  A
C1260      H1268   1.085       .  S
C1269      C1904   1.414       .  A
C1269      C1274   1.399       .  A
C1269      C2483   1.476       .  S
C1270      C1903   1.414       .  A
C1270      C1893   1.485       .  S
C1271      C1272   1.405       .  A
C1272      C1907   1.412       .  A
C1272      C1859   1.480       .  S
C1273      C1906   1.412       .  A
C1273      C1827   1.478       .  S
C1277      C1278   1.416       .  A
C1277      C1282   1.404   1_564  A
C1277      C1793   1.480   1_554  S
C1278      C1279   1.402       .  A
C1278      C1881   1.484       .  S
C1279      C1280   1.400       .  A
C1279      H1284   1.085       .  S
C1280      C1281   1.412       .  A
C1280      C1871   1.477       .  S
C1281      C1282   1.401   1_564  A
C1281      C1783   1.480   1_554  S
C1282      H1283   1.085       .  S
O1285     Ni1293   1.919       .  S
O1285      C1929   1.280   1_545  A
O1286     Ni1293   1.917       .  S
O1286      C1930   1.281   1_545  A
O1287     Ni1293   1.920       .  S
O1287      C1297   1.282   1_545  A
O1288     Ni1293   1.922       .  S
O1288      C1298   1.283   1_545  A
O1289     Ni1294   1.920       .  S
O1289      C1932   1.282       .  A
O1290     Ni1294   1.913       .  S
O1290      C1931   1.281       .  A
O1291     Ni1294   1.917       .  S
O1291      C1296   1.282       .  A
O1292     Ni1294   1.922       .  S
O1292      C1295   1.281       .  A
Ni1293    Ni1928   2.388   1_545  S
Ni1294    Ni1927   2.388       .  S
C1295      C1761   1.471       .  S
C1295      O1919   1.280       .  A
C1296      C1815   1.480       .  S
C1296      O1920   1.281       .  A
C1297      C1837   1.480       .  S
C1297      O1924   1.281       .  A
C1298      C1739   1.485       .  S
C1298      O1923   1.282       .  A
C1299      C1300   1.414       .  A
C1299      C1304   1.403       .  A
C1299      C1717   1.483       .  S
C1300      C1301   1.403   1_545  A
C1300      C1805   1.479   1_545  S
C1301      H1306   1.085       .  S
C1302      C1303   1.410       .  A
C1302      C1771   1.480       .  S
C1303      C1695   1.475       .  S
C1304      H1305   1.085       .  S
O1307     Ni1315   1.915       .  S
O1307      C1951   1.281       .  A
O1308     Ni1315   1.920       .  S
O1308      C1952   1.280       .  A
O1309     Ni1315   1.922       .  S
O1309      C1319   1.283       .  A
O1310     Ni1315   1.921       .  S
O1310      C1320   1.282       .  A
O1311     Ni1316   1.914       .  S
O1311      C1954   1.281       .  A
O1312     Ni1316   1.925       .  S
O1312      C1953   1.283       .  A
O1313     Ni1316   1.923       .  S
O1313      C1318   1.282       .  A
O1314     Ni1316   1.918       .  S
O1314      C1317   1.282       .  A
Ni1315    Ni1950   2.387       .  S
Ni1316    Ni1949   2.387   1_545  S
C1317      C1683   1.481       .  S
C1317      O1941   1.281   1_545  A
C1318      C1661   1.473       .  S
C1318      O1942   1.280   1_545  A
C1319      C1651   1.488       .  S
C1319      O1946   1.283       .  A
C1320      C1705   1.479       .  S
C1320      O1945   1.281       .  A
O1321     Ni1329   1.920       .  S
O1321      C1331   1.282       .  A
O1322     Ni1329   1.922       .  S
O1322      C1332   1.281       .  A
O1323     Ni1329   1.922       .  S
O1323      C1333   1.283       .  A
O1324     Ni1329   1.925       .  S
O1324      C1334   1.283       .  A
O1325     Ni1330   1.912       .  S
O1326     Ni1330   1.925       .  S
O1327     Ni1330   1.926       .  S
O1328     Ni1330   1.920       .  S
C1331      C1573   1.485       .  S
C1332      C1607   1.476       .  S
C1333      C1629   1.489       .  S
C1334      C1551   1.483       .  S
C1335      C1336   1.412       .  A
C1335      C1974   1.404       .  A
C1335      C1585   1.485       .  S
C1336      C1971   1.402       .  A
C1336      C1529   1.479       .  S
C1337      C1970   1.402       .  A
C1337      C1338   1.403       .  A
C1337      H1342   1.085       .  S
C1338      C1339   1.417       .  A
C1338      C1507   1.490       .  S
C1339      C1340   1.406       .  A
C1339      C1563   1.481       .  S
C1340      C1969   1.404       .  A
C1340      H1341   1.085       .  S
C1343      C1344   1.417       .  A
C1343      C1348   1.404       .  A
C1343      C1485   1.492       .  S
C1344      C1345   1.404       .  A
C1344      C1541   1.481       .  S
C1345      C1346   1.404       .  A
C1345      H1350   1.085       .  S
C1346      C1347   1.417       .  A
C1346      C1519   1.492       .  S
C1347      C1348   1.405       .  A
C1347      C1475   1.481       .  S
C1348      H1349   1.085       .  S
C1351      C2229   1.563   1_545  S
C1351      C1617   1.569       .  S
C1351      C1673   1.563       .  S
C1352      C1353   1.419       .  A
C1352      C1357   1.406       .  A
C1352      C1497   1.489       .  S
C1353      C1354   1.409       .  A
C1353      C1453   1.489       .  S
C1354      C1989   1.402   1_545  A
C1354      H1359   1.085       .  S
C1355      C1988   1.402       .  A
C1355      C1356   1.412       .  A
C1355      C1419   1.483       .  S
C1356      C1991   1.403       .  A
C1356      C1463   1.482       .  S
C1357      C1990   1.403   1_545  A
C1357      H1358   1.085   1_545  S
O1360     Ni1368   1.921       .  S
O1360      C1370   1.280       .  A
O1361     Ni1368   1.913       .  S
O1361      C1371   1.281       .  A
O1362     Ni1368   1.930       .  S
O1362      C1372   1.284       .  A
O1363     Ni1368   1.934       .  S
O1363      C1373   1.285       .  A
O1364     Ni1369   1.916       .  S
O1365     Ni1369   1.911       .  S
O1366     Ni1369   1.928       .  S
O1367     Ni1369   1.931       .  S
C1370      C1397   1.477       .  S
C1371      C1431   1.486       .  S
C1372      C1441   1.481       .  S
C1373      C1387   1.489       .  S
C1374      C1409   1.565       .  S
C1374      C1727   1.568   1_545  S
C1375      C1380   1.418       .  A
C1376      C1377   1.402       .  A
C1376      H1389   1.083       .  S
C1377      H1390   1.078       .  S
C1378      C1384   1.436       .  A
C1378      C1379   1.417       .  A
C1379      C1381   1.402       .  A
C1379      C1380   1.406       .  A
C1380      H1391   1.078       .  S
C1381      C1382   1.391       .  A
C1381      H1392   1.084       .  S
C1382      C1383   1.399       .  A
C1382      H1393   1.084       .  S
C1383      C1384   1.425       .  A
C1383      C1388   1.411       .  A
C1385      C1386   1.399       .  A
C1385      H1394   1.078       .  S
C1386      H1395   1.083       .  S
C1387      C1388   1.402       .  A
C1388      H1396   1.084       .  S
C1397      C1398   1.397       .  A
C1398      C1399   1.404       .  A
C1398      H1411   1.083       .  S
C1399      C1400   1.420       .  A
C1399      H1412   1.077       .  S
C1400      C1406   1.436       .  A
C1401      C1403   1.400       .  A
C1401      C1402   1.408       .  A
C1402      H1413   1.085       .  S
C1403      C1404   1.391       .  A
C1403      H1414   1.084       .  S
C1404      C1405   1.400       .  A
C1404      H1415   1.084       .  S
C1405      C1410   1.412       .  A
C1406      C1407   1.411       .  A
C1407      C1408   1.398       .  A
C1407      H1416   1.077       .  S
C1408      H1417   1.083       .  S
C1409      C1410   1.411       .  A
C1410      H1418   1.079       .  S
C1419      C1420   1.398       .  A
C1420      C1421   1.396       .  A
C1420      H1433   1.084       .  S
C1421      C1422   1.415       .  A
C1421      H1434   1.077       .  S
C1422      C1428   1.431       .  A
C1423      C1425   1.400       .  A
C1423      C1424   1.408       .  A
C1424      H1435   1.084       .  S
C1425      C1426   1.393       .  A
C1425      H1436   1.084       .  S
C1426      C1427   1.401       .  A
C1426      H1437   1.084       .  S
C1427      C1432   1.409       .  A
C1428      C1429   1.413       .  A
C1429      C1430   1.395       .  A
C1429      H1438   1.077       .  S
C1430      C1431   1.402       .  A
C1430      H1439   1.083       .  S
C1432      H1440   1.084       .  S
C1441      C1446   1.402       .  A
C1442      H1455   1.083       .  S
C1443      C1444   1.414       .  A
C1444      C1450   1.431       .  A
C1444      C1445   1.423       .  A
C1445      C1447   1.400       .  A
C1445      C1446   1.409       .  A
C1446      H1457   1.084       .  S
C1447      C1448   1.392       .  A
C1447      H1458   1.084       .  S
C1448      C1449   1.400       .  A
C1448      H1459   1.084       .  S
C1449      C1450   1.422       .  A
C1449      C1454   1.408       .  A
C1450      C1451   1.415       .  A
C1452      H1461   1.084       .  S
C1453      C1454   1.403       .  A
C1454      H1462   1.084       .  S
C1463      C1468   1.400       .  A
C1464      C1465   1.396       .  A
C1464      H1477   1.083       .  S
C1465      C1466   1.416       .  A
C1465      H1478   1.077       .  S
C1466      C1472   1.430       .  A
C1467      C1469   1.399       .  A
C1467      C1468   1.404       .  A
C1468      H1479   1.085       .  S
C1469      C1470   1.390       .  A
C1469      H1480   1.084       .  S
C1470      C1471   1.399       .  A
C1470      H1481   1.084       .  S
C1471      C1476   1.405       .  A
C1472      C1473   1.415       .  A
C1473      C1474   1.395       .  A
C1473      H1482   1.077       .  S
C1474      H1483   1.084       .  S
C1475      C1476   1.399       .  A
C1476      H1484   1.085       .  S
C1485      C1486   1.401       .  A
C1486      C1487   1.399       .  A
C1486      H1499   1.083       .  S
C1487      H1500   1.077       .  S
C1488      C1494   1.432       .  A
C1488      C1489   1.422       .  A
C1489      C1491   1.400       .  A
C1489      C1490   1.406       .  A
C1490      H1501   1.085       .  S
C1491      C1492   1.390       .  A
C1491      H1502   1.084       .  S
C1492      C1493   1.399       .  A
C1492      H1503   1.084       .  S
C1493      C1494   1.424       .  A
C1493      C1498   1.407       .  A
C1495      C1496   1.396       .  A
C1495      H1504   1.077       .  S
C1496      C1497   1.401       .  A
C1496      H1505   1.084       .  S
C1498      H1506   1.084       .  S
C1507      C1512   1.401       .  A
C1508      C1509   1.396   1_455  A
C1508      H1521   1.083   1_455  S
C1509      H1522   1.077       .  S
C1510      C1516   1.432       .  A
C1510      C1511   1.424       .  A
C1511      C1513   1.399       .  A
C1511      C1512   1.407       .  A
C1512      H1523   1.084       .  S
C1513      C1514   1.390       .  A
C1513      H1524   1.084       .  S
C1514      C1515   1.400       .  A
C1514      H1525   1.084       .  S
C1515      C1516   1.421       .  A
C1515      C1520   1.405       .  A
C1517      C1518   1.398       .  A
C1517      H1526   1.077       .  S
C1518      H1527   1.083       .  S
C1519      C1520   1.403       .  A
C1520      H1528   1.085       .  S
C1529      C1534   1.399       .  A
C1530      C1531   1.393       .  A
C1530      H1543   1.084       .  S
C1531      H1544   1.077       .  S
C1532      C1538   1.428       .  A
C1532      C1533   1.424       .  A
C1533      C1535   1.399       .  A
C1533      C1534   1.405       .  A
C1534      H1545   1.085       .  S
C1535      C1536   1.390       .  A
C1535      H1546   1.084       .  S
C1536      C1537   1.400       .  A
C1536      H1547   1.084       .  S
C1537      C1538   1.422       .  A
C1537      C1542   1.403       .  A
C1539      C1540   1.395       .  A
C1539      H1548   1.077       .  S
C1540      H1549   1.083       .  S
C1541      C1542   1.401       .  A
C1542      H1550   1.085       .  S
C1551      C1556   1.405       .  A
C1552      C1553   1.392       .  A
C1552      H1565   1.083       .  S
C1553      C1554   1.413   1_655  A
C1553      H1566   1.077       .  S
C1554      C1560   1.428       .  A
C1555      C1557   1.401       .  A
C1555      C1556   1.409       .  A
C1556      H1567   1.084       .  S
C1557      C1558   1.393       .  A
C1557      H1568   1.084       .  S
C1558      C1559   1.400       .  A
C1558      H1569   1.084       .  S
C1559      C1564   1.407       .  A
C1560      C1561   1.415       .  A
C1561      C1562   1.393       .  A
C1561      H1570   1.077   1_455  S
C1562      H1571   1.084   1_455  S
C1563      C1564   1.402       .  A
C1564      H1572   1.084       .  S
C1573      C1574   1.402       .  A
C1574      C1575   1.398       .  A
C1574      H1587   1.083       .  S
C1575      H1588   1.077       .  S
C1576      C1582   1.432       .  A
C1576      C1577   1.423       .  A
C1577      C1579   1.399   1_455  A
C1577      C1578   1.406   1_455  A
C1578      H1589   1.084       .  S
C1579      C1580   1.390       .  A
C1579      H1590   1.084       .  S
C1580      C1581   1.399   1_655  A
C1580      H1591   1.084       .  S
C1581      C1582   1.423       .  A
C1581      C1586   1.405       .  A
C1583      C1584   1.398       .  A
C1583      H1592   1.077       .  S
C1584      C1585   1.398       .  A
C1584      H1593   1.083       .  S
C1586      H1594   1.085   1_455  S
C1595      C1596   1.409       .  A
C1595      C1985   1.563       .  S
C1596      C1597   1.401       .  A
C1596      H1609   1.078       .  S
C1597      C1598   1.414       .  A
C1597      H1610   1.078       .  S
C1598      C1604   1.433       .  A
C1599      C1601   1.401       .  A
C1599      C1600   1.406       .  A
C1600      H1611   1.084       .  S
C1601      C1602   1.393       .  A
C1601      H1612   1.084       .  S
C1602      C1603   1.400       .  A
C1602      H1613   1.084       .  S
C1603      C1608   1.412       .  A
C1604      C1605   1.414       .  A
C1605      C1606   1.398       .  A
C1605      H1614   1.078       .  S
C1606      C1607   1.399       .  A
C1606      H1615   1.084       .  S
C1608      H1616   1.084       .  S
C1617      C1622   1.415       .  A
C1618      C1619   1.405       .  A
C1618      H1631   1.083       .  S
C1619      C1620   1.415       .  A
C1619      H1632   1.078       .  S
C1620      C1626   1.437       .  A
C1621      C1623   1.400       .  A
C1621      C1622   1.403       .  A
C1622      H1633   1.078       .  S
C1623      C1624   1.387       .  A
C1623      H1634   1.084       .  S
C1624      C1625   1.397       .  A
C1624      H1635   1.084       .  S
C1625      C1630   1.405       .  A
C1626      C1627   1.416       .  A
C1627      C1628   1.404       .  A
C1627      H1636   1.078       .  S
C1628      H1637   1.083       .  S
C1629      C1630   1.401       .  A
C1630      H1638   1.084       .  S
C1639      C1640   1.412       .  A
C1639      C2278   1.416   1_545  A
C1640      C1641   1.402       .  A
C1640      H1653   1.083       .  S
C1641      C1642   1.414       .  A
C1641      H1654   1.078       .  S
C1642      C1648   1.435       .  A
C1642      C2277   1.418   1_545  A
C1643      C2276   1.418       .  A
C1643      C1645   1.401       .  A
C1643      C1644   1.405       .  A
C1644      C2273   1.416       .  A
C1644      H1655   1.078       .  S
C1645      C1646   1.389       .  A
C1645      H1656   1.084       .  S
C1646      C1647   1.398       .  A
C1646      H1657   1.084       .  S
C1647      C2282   1.423       .  A
C1647      C1652   1.406       .  A
C1648      C2281   1.423   1_545  A
C1648      C1649   1.415       .  A
C1649      C1650   1.402       .  A
C1649      H1658   1.078       .  S
C1650      C2285   1.404       .  A
C1650      H1659   1.083       .  S
C1651      C2284   1.404       .  A
C1651      C1652   1.402       .  A
C1652      H1660   1.084       .  S
C1661      C2296   1.399       .  A
C1661      C1666   1.399       .  A
C1662      C2295   1.399       .  A
C1662      C1663   1.398       .  A
C1662      H1675   1.084       .  S
C1663      C2298   1.414       .  A
C1663      H1676   1.078       .  S
C1664      C2297   1.414       .  A
C1664      C1670   1.432       .  A
C1664      C1665   1.425       .  A
C1665      C1667   1.399   1_545  A
C1665      C1666   1.409       .  A
C1666      H1677   1.084   1_545  S
C1667      C1668   1.392       .  A
C1667      H1678   1.084       .  S
C1668      C1669   1.401       .  A
C1668      H1679   1.084       .  S
C1669      C1670   1.417   1_565  A
C1669      C1674   1.404       .  A
C1670      C2305   1.414       .  A
C1671      C2304   1.414       .  A
C1671      C1672   1.402       .  A
C1671      H1680   1.079       .  S
C1672      C2307   1.410       .  A
C1672      H1681   1.078       .  S
C1673      C2306   1.410       .  A
C1673      C1674   1.416   1_545  A
C1674      H1682   1.084       .  S
C1683      C1684   1.401   1_545  A
C1683      C2322   1.402       .  A
C1684      C2319   1.395       .  A
C1684      H1697   1.083       .  S
C1685      C2318   1.395       .  A
C1685      C1686   1.414       .  A
C1685      H1698   1.077       .  S
C1686      C1692   1.428       .  A
C1686      C1687   1.422       .  A
C1687      C1689   1.400       .  A
C1687      C1688   1.405       .  A
C1688      C2317   1.402       .  A
C1688      H1699   1.084       .  S
C1689      C1690   1.390       .  A
C1689      H1700   1.084       .  S
C1690      C1691   1.399       .  A
C1690      H1701   1.084       .  S
C1691      C1692   1.423       .  A
C1691      C1696   1.404       .  A
C1692      C1693   1.415       .  A
C1693      C2328   1.395       .  A
C1693      H1702   1.077       .  S
C1694      C2327   1.395       .  A
C1694      C1695   1.397   1_565  A
C1694      H1703   1.084       .  S
C1695      C2330   1.398       .  A
C1696      C2329   1.398       .  A
C1696      H1704   1.085       .  S
C1705      C1706   1.401       .  A
C1705      C2344   1.401       .  A
C1706      C1707   1.399       .  A
C1706      H1719   1.083       .  S
C1707      C2342   1.416       .  A
C1707      H1720   1.077       .  S
C1708      C2341   1.416   1_545  A
C1708      C1714   1.431       .  A
C1708      C1709   1.422       .  A
C1709      C1711   1.399       .  A
C1709      C1710   1.403       .  A
C1710      C2339   1.401       .  A
C1710      H1721   1.085       .  S
C1711      C1712   1.388       .  A
C1711      H1722   1.084       .  S
C1712      C1713   1.398       .  A
C1712      H1723   1.084       .  S
C1713      C1714   1.423       .  A
C1713      C1718   1.403       .  A
C1714      C2349   1.416   1_545  A
C1715      C2348   1.416       .  A
C1715      C1716   1.398       .  A
C1715      H1724   1.077       .  S
C1716      C2351   1.400       .  A
C1716      H1725   1.083       .  S
C1717      C2350   1.400   1_545  A
C1717      C1718   1.398       .  A
C1718      H1726   1.085       .  S
C1727      C2362   1.413       .  A
C1727      C1732   1.416   1_565  A
C1728      C2361   1.413       .  A
C1728      C1729   1.401       .  A
C1728      H1741   1.083       .  S
C1729      C1730   1.413       .  A
C1729      H1742   1.078       .  S
C1730      C1736   1.433       .  A
C1730      C2365   1.417       .  A
C1731      C2364   1.417   1_545  A
C1731      C1733   1.401       .  A
C1731      C1732   1.404       .  A
C1732      H1743   1.077       .  S
C1733      C1734   1.389       .  A
C1733      H1744   1.084       .  S
C1734      C1735   1.398       .  A
C1734      H1745   1.084       .  S
C1735      C2370   1.423   1_545  A
C1735      C1740   1.406       .  A
C1736      C2369   1.423       .  A
C1736      C1737   1.414       .  A
C1737      C1738   1.400       .  A
C1737      H1746   1.078       .  S
C1738      C2373   1.404       .  A
C1738      H1747   1.083       .  S
C1739      C2372   1.404       .  A
C1739      C1740   1.402   1_565  A
C1740      H1748   1.084       .  S
C1749      C1750   1.409       .  A
C1749      C2388   1.414       .  A
C1750      C2385   1.400       .  A
C1750      H1763   1.078       .  S
C1751      C2384   1.400       .  A
C1751      C1752   1.414       .  A
C1751      H1764   1.078       .  S
C1752      C1758   1.431       .  A
C1752      C1753   1.417   1_565  A
C1753      C1755   1.401       .  A
C1753      C1754   1.405       .  A
C1754      C2383   1.414       .  A
C1754      H1765   1.084       .  S
C1755      C1756   1.392       .  A
C1755      H1766   1.084       .  S
C1756      C1757   1.399   1_545  A
C1756      H1767   1.084       .  S
C1757      C1758   1.425       .  A
C1757      C1762   1.410       .  A
C1758      C1759   1.414       .  A
C1759      C2394   1.396       .  A
C1759      H1768   1.078       .  S
C1760      C2393   1.396       .  A
C1760      C1761   1.398       .  A
C1760      H1769   1.084       .  S
C1761      C2396   1.398       .  A
C1762      C2395   1.398       .  A
C1762      H1770   1.084   1_565  S
C1771      C1772   1.398   1_545  A
C1771      C1776   1.400       .  A
C1772      C1773   1.394       .  A
C1772      H2419   1.084       .  S
C1773      C1774   1.415       .  A
C1773      H1786   1.077       .  S
C1774      C1780   1.429       .  A
C1774      C1775   1.423   1_565  A
C1775      C1777   1.399       .  A
C1775      C1776   1.404       .  A
C1776      H1787   1.085       .  S
C1777      C1778   1.390       .  A
C1777      H1788   1.084       .  S
C1778      C1779   1.399       .  A
C1778      H1789   1.084       .  S
C1779      C1780   1.423   1_545  A
C1779      C1784   1.404       .  A
C1780      C1781   1.416       .  A
C1781      C1782   1.395       .  A
C1781      H1790   1.077       .  S
C1782      C1783   1.398       .  A
C1782      H2425   1.083   1_556  S
C1783      C1784   1.399   1_565  A
C1784      H1792   1.085       .  S
H1785      C2406   1.084       .  S
H1791      C2416   1.083   1_554  S
C1793      C2428   1.398       .  A
C1793      C1798   1.399   1_565  A
C1794      C2427   1.398       .  A
C1794      C1795   1.395       .  A
C1794      H1807   1.083   1_556  S
C1795      C2430   1.416       .  A
C1795      H1808   1.077       .  S
C1796      C2429   1.416       .  A
C1796      C1802   1.428       .  A
C1796      C1797   1.423   1_565  A
C1797      C1799   1.399       .  A
C1797      C1798   1.402       .  A
C1798      H1809   1.085       .  S
C1799      C1800   1.388       .  A
C1799      H1810   1.084       .  S
C1800      C1801   1.398       .  A
C1800      H1811   1.084       .  S
C1801      C1802   1.423   1_545  A
C1801      C1806   1.402       .  A
C1802      C2437   1.415       .  A
C1803      C2436   1.415       .  A
C1803      C1804   1.394       .  A
C1803      H1812   1.077       .  S
C1804      C2439   1.398       .  A
C1804      H1813   1.084       .  S
C1805      C2438   1.398       .  A
C1805      C1806   1.398   1_565  A
C1806      H1814   1.085       .  S
C1815      C1816   1.400       .  A
C1815      C2454   1.403       .  A
C1816      C1817   1.395       .  A
C1816      H1829   1.083       .  S
C1817      C1818   1.415       .  A
C1817      H1830   1.077       .  S
C1818      C1824   1.429       .  A
C1818      C1819   1.422       .  A
C1819      C2455   1.400       .  A
C1819      C2454   1.405       .  A
C1820      C2449   1.403   1_545  A
C1820      C2453   1.405       .  A
C1820      H1831   1.084       .  S
C1821      C2453   1.400       .  A
C1821      C1822   1.390       .  A
C1821      H1832   1.084       .  S
C1822      C2457   1.399       .  A
C1822      H1833   1.084       .  S
C1823      C2456   1.399       .  A
C1823      C1824   1.424       .  A
C1823      C2462   1.405       .  A
C1824      C1825   1.415       .  A
C1825      C1826   1.394       .  A
C1825      H1834   1.077       .  S
C1826      C1827   1.397       .  A
C1826      H1835   1.084       .  S
C1827      C2462   1.399       .  A
C1828      C2457   1.405       .  A
C1828      C2461   1.399   1_545  A
C1828      H1836   1.085       .  S
C1837      C2472   1.401       .  A
C1837      C1842   1.402   1_565  A
C1838      C2471   1.401       .  A
C1838      C2473   1.394       .  A
C1838      H1851   1.083       .  S
C1839      C2472   1.394       .  A
C1839      C1840   1.414       .  A
C1839      H1852   1.077       .  S
C1840      C1846   1.429       .  A
C1840      C1841   1.422   1_565  A
C1841      C1843   1.400       .  A
C1841      C1842   1.405       .  A
C1842      H1853   1.084       .  S
C1843      C1844   1.390       .  A
C1843      H1854   1.084       .  S
C1844      C1845   1.399       .  A
C1844      H1855   1.084       .  S
C1845      C1846   1.423   1_545  A
C1845      C1850   1.404       .  A
C1846      C1847   1.415       .  A
C1847      C2482   1.394       .  A
C1847      H1856   1.077       .  S
C1848      C2481   1.394       .  A
C1848      C2483   1.397       .  A
C1848      H1857   1.084       .  S
C1849      C2482   1.397       .  A
C1849      C1850   1.398   1_565  A
C1849      C1903   1.476       .  S
C1850      H1858   1.085       .  S
C1859      C2494   1.398       .  A
C1859      C1864   1.399   1_565  A
C1860      C2493   1.398       .  A
C1860      C1861   1.395       .  A
C1860      H1873   1.083       .  S
C1861      C2496   1.415       .  A
C1861      H1874   1.077       .  S
C1862      C2495   1.415       .  A
C1862      C1868   1.428       .  A
C1862      C1863   1.423   1_565  A
C1863      C1865   1.399       .  A
C1863      C1864   1.404       .  A
C1864      H1875   1.085       .  S
C1865      C1866   1.389       .  A
C1865      H1876   1.084       .  S
C1866      C1867   1.399       .  A
C1866      H1877   1.084       .  S
C1867      C1868   1.424   1_545  A
C1867      C1872   1.404       .  A
C1868      C2503   1.415       .  A
C1869      C2502   1.415       .  A
C1869      C1870   1.394       .  A
C1869      H1878   1.077       .  S
C1870      C2505   1.398       .  A
C1870      H1879   1.084       .  S
C1871      C2504   1.398       .  A
C1871      C1872   1.398   1_565  A
C1872      H1880   1.085       .  S
C1881      C2516   1.399       .  A
C1881      C1886   1.401   1_565  A
C1882      C2515   1.399       .  A
C1882      C1883   1.393       .  A
C1882      H1895   1.084       .  S
C1883      C2518   1.414       .  A
C1883      H1896   1.077       .  S
C1884      C2517   1.414       .  A
C1884      C1890   1.428       .  A
C1884      C1885   1.423   1_565  A
C1885      C1887   1.399       .  A
C1885      C1886   1.405       .  A
C1886      H1897   1.084       .  S
C1887      C1888   1.390       .  A
C1887      H1898   1.084       .  S
C1888      C1889   1.400       .  A
C1888      H1899   1.084       .  S
C1889      C1890   1.422   1_545  A
C1889      C1894   1.405       .  A
C1890      C2525   1.415       .  A
C1891      C2524   1.415       .  A
C1891      C1892   1.394       .  A
C1891      H1900   1.077       .  S
C1892      C2527   1.399       .  A
C1892      H1901   1.083       .  S
C1893      C2526   1.399       .  A
C1893      C1894   1.401   1_565  A
C1894      H1902   1.085       .  S
C1903      C1908   1.399       .  A
C1904      C2527   1.485       .  S
C1905      C1906   1.405       .  A
C1906      C2493   1.480       .  S
C1907      C2461   1.478       .  S
C1911      C1912   1.416       .  A
C1911      C1916   1.404   1_554  A
C1911      C2427   1.480   1_554  S
C1912      C1913   1.402       .  A
C1912      C2515   1.484       .  S
C1913      C1914   1.400       .  A
C1913      H1918   1.085       .  S
C1914      C1915   1.412       .  A
C1914      C2505   1.477       .  S
C1915      C1916   1.401   1_554  A
C1915      C2417   1.480   1_554  S
C1916      H1917   1.085       .  S
O1919     Ni1927   1.919       .  S
O1920     Ni1927   1.917       .  S
O1921     Ni1927   1.920       .  S
O1921      C1931   1.282       .  A
O1922     Ni1927   1.922       .  S
O1922      C1932   1.283       .  A
O1923     Ni1928   1.920       .  S
O1924     Ni1928   1.913       .  S
O1925     Ni1928   1.917       .  S
O1925      C1930   1.282       .  A
O1926     Ni1928   1.922       .  S
O1926      C1929   1.281       .  A
C1929      C2395   1.471       .  S
C1930      C2449   1.480       .  S
C1931      C2471   1.480       .  S
C1932      C2373   1.485       .  S
C1933      C1934   1.414       .  A
C1933      C1938   1.403       .  A
C1933      C2351   1.483       .  S
C1934      C1935   1.403       .  A
C1934      C2439   1.479       .  S
C1935      H1940   1.085       .  S
C1936      C1937   1.410       .  A
C1936      C2405   1.480       .  S
C1937      C2329   1.475       .  S
C1938      H1939   1.085       .  S
O1941     Ni1949   1.915       .  S
O1942     Ni1949   1.920       .  S
O1943     Ni1949   1.922       .  S
O1943      C1953   1.283   1_565  A
O1944     Ni1949   1.921       .  S
O1944      C1954   1.282   1_565  A
O1945     Ni1950   1.914       .  S
O1946     Ni1950   1.925       .  S
O1947     Ni1950   1.923       .  S
O1947      C1952   1.282       .  A
O1948     Ni1950   1.918       .  S
O1948      C1951   1.282       .  A
C1951      C2317   1.481       .  S
C1952      C2295   1.473       .  S
C1953      C2285   1.488       .  S
C1954      C2339   1.479       .  S
O1955     Ni1963   1.920       .  S
O1955      C1965   1.282       .  A
O1956     Ni1963   1.922       .  S
O1956      C1966   1.281       .  A
O1957     Ni1963   1.922       .  S
O1957      C1967   1.283       .  A
O1958     Ni1963   1.925       .  S
O1958      C1968   1.283       .  A
O1959     Ni1964   1.912       .  S
O1960     Ni1964   1.925       .  S
O1961     Ni1964   1.926       .  S
O1962     Ni1964   1.920       .  S
C1965      C2207   1.485       .  S
C1966      C2241   1.476       .  S
C1967      C2263   1.489       .  S
C1968      C2185   1.483       .  S
C1969      C1970   1.412       .  A
C1969      C2219   1.485       .  S
C1970      C2163   1.479       .  S
C1971      C1972   1.403   1_545  A
C1971      H1976   1.085       .  S
C1972      C1973   1.417       .  A
C1972      C2141   1.490       .  S
C1973      C1974   1.406   1_565  A
C1973      C2197   1.481       .  S
C1974      H1975   1.085       .  S
C1977      C1978   1.417       .  A
C1977      C1982   1.404       .  A
C1977      C2119   1.492       .  S
C1978      C1979   1.404       .  A
C1978      C2175   1.481       .  S
C1979      C1980   1.404       .  A
C1979      H1984   1.085       .  S
C1980      C1981   1.417       .  A
C1980      C2153   1.492       .  S
C1981      C1982   1.405       .  A
C1981      C2109   1.481       .  S
C1982      H1983   1.085       .  S
C1985      C2251   1.569       .  S
C1985      C2307   1.563       .  S
C1986      C1987   1.419       .  A
C1986      C1991   1.406       .  A
C1986      C2131   1.489       .  S
C1987      C1988   1.409       .  A
C1987      C2087   1.489       .  S
C1988      H1993   1.085       .  S
C1989      C1990   1.411       .  A
C1989      C2053   1.483       .  S
C1990      C2097   1.482       .  S
C1991      H1992   1.085       .  S
O1994     Ni2002   1.921       .  S
O1994      C2004   1.280       .  A
O1995     Ni2002   1.913       .  S
O1995      C2005   1.281       .  A
O1996     Ni2002   1.930       .  S
O1996      C2006   1.284       .  A
O1997     Ni2002   1.934       .  S
O1997      C2007   1.285       .  A
O1998     Ni2003   1.916       .  S
O1999     Ni2003   1.911       .  S
O2000     Ni2003   1.928       .  S
O2001     Ni2003   1.931       .  S
C2004      C2031   1.477       .  S
C2005      C2065   1.486       .  S
C2006      C2075   1.481       .  S
C2007      C2021   1.489       .  S
C2008      C2043   1.565       .  S
C2008      C2361   1.568       .  S
C2009      C2014   1.418       .  A
C2010      C2011   1.402       .  A
C2010      H2023   1.083       .  S
C2011      H2024   1.078       .  S
C2012      C2018   1.436       .  A
C2012      C2013   1.417       .  A
C2013      C2015   1.402       .  A
C2013      C2014   1.406       .  A
C2014      H2025   1.078       .  S
C2015      C2016   1.391       .  A
C2015      H2026   1.084       .  S
C2016      C2017   1.399       .  A
C2016      H2027   1.084       .  S
C2017      C2018   1.425       .  A
C2017      C2022   1.411       .  A
C2019      C2020   1.399       .  A
C2019      H2028   1.078       .  S
C2020      H2029   1.083       .  S
C2021      C2022   1.402       .  A
C2022      H2030   1.084       .  S
C2031      C2032   1.397       .  A
C2032      C2033   1.404       .  A
C2032      H2045   1.083       .  S
C2033      C2034   1.420       .  A
C2033      H2046   1.077       .  S
C2034      C2040   1.436       .  A
C2035      C2037   1.400       .  A
C2035      C2036   1.408       .  A
C2036      H2047   1.085       .  S
C2037      C2038   1.391       .  A
C2037      H2048   1.084       .  S
C2038      C2039   1.400       .  A
C2038      H2049   1.084       .  S
C2039      C2044   1.412       .  A
C2040      C2041   1.411       .  A
C2041      C2042   1.398       .  A
C2041      H2050   1.077       .  S
C2042      H2051   1.083       .  S
C2043      C2044   1.411       .  A
C2044      H2052   1.079       .  S
C2053      C2054   1.398       .  A
C2054      C2055   1.396       .  A
C2054      H2067   1.084       .  S
C2055      C2056   1.415       .  A
C2055      H2068   1.077       .  S
C2056      C2062   1.431       .  A
C2057      C2059   1.400       .  A
C2057      C2058   1.408       .  A
C2058      H2069   1.084       .  S
C2059      C2060   1.393       .  A
C2059      H2070   1.084       .  S
C2060      C2061   1.401       .  A
C2060      H2071   1.084       .  S
C2061      C2066   1.409       .  A
C2062      C2063   1.413       .  A
C2063      C2064   1.395       .  A
C2063      H2072   1.077       .  S
C2064      C2065   1.402       .  A
C2064      H2073   1.083       .  S
C2066      H2074   1.084       .  S
C2075      C2080   1.402       .  A
C2076      H2089   1.083       .  S
C2077      C2078   1.414       .  A
C2078      C2084   1.431       .  A
C2078      C2079   1.423       .  A
C2079      C2081   1.400       .  A
C2079      C2080   1.409       .  A
C2080      H2091   1.084       .  S
C2081      C2082   1.392       .  A
C2081      H2092   1.084       .  S
C2082      C2083   1.400       .  A
C2082      H2093   1.084       .  S
C2083      C2084   1.422       .  A
C2083      C2088   1.408       .  A
C2084      C2085   1.415       .  A
C2086      H2095   1.084       .  S
C2087      C2088   1.403       .  A
C2088      H2096   1.084       .  S
C2097      C2102   1.400       .  A
C2098      C2099   1.396       .  A
C2098      H2111   1.083       .  S
C2099      C2100   1.416       .  A
C2099      H2112   1.077       .  S
C2100      C2106   1.430       .  A
C2101      C2103   1.399       .  A
C2101      C2102   1.404       .  A
C2102      H2113   1.085       .  S
C2103      C2104   1.390       .  A
C2103      H2114   1.084       .  S
C2104      C2105   1.399       .  A
C2104      H2115   1.084       .  S
C2105      C2110   1.405       .  A
C2106      C2107   1.415       .  A
C2107      C2108   1.395       .  A
C2107      H2116   1.077       .  S
C2108      H2117   1.084       .  S
C2109      C2110   1.399       .  A
C2110      H2118   1.085       .  S
C2119      C2120   1.401       .  A
C2120      C2121   1.399       .  A
C2120      H2133   1.083       .  S
C2121      H2134   1.077       .  S
C2122      C2128   1.432       .  A
C2122      C2123   1.422       .  A
C2123      C2125   1.400       .  A
C2123      C2124   1.406       .  A
C2124      H2135   1.085       .  S
C2125      C2126   1.390       .  A
C2125      H2136   1.084       .  S
C2126      C2127   1.399       .  A
C2126      H2137   1.084       .  S
C2127      C2128   1.424       .  A
C2127      C2132   1.407       .  A
C2129      C2130   1.396       .  A
C2129      H2138   1.077       .  S
C2130      C2131   1.401       .  A
C2130      H2139   1.084       .  S
C2132      H2140   1.084       .  S
C2141      C2146   1.401       .  A
C2142      C2143   1.396   1_455  A
C2142      H2155   1.083   1_455  S
C2143      H2156   1.077       .  S
C2144      C2150   1.432       .  A
C2144      C2145   1.424       .  A
C2145      C2147   1.399       .  A
C2145      C2146   1.407       .  A
C2146      H2157   1.084       .  S
C2147      C2148   1.390       .  A
C2147      H2158   1.084       .  S
C2148      C2149   1.400       .  A
C2148      H2159   1.084       .  S
C2149      C2150   1.421       .  A
C2149      C2154   1.405       .  A
C2151      C2152   1.398       .  A
C2151      H2160   1.077       .  S
C2152      H2161   1.083       .  S
C2153      C2154   1.403       .  A
C2154      H2162   1.085       .  S
C2163      C2168   1.399       .  A
C2164      C2165   1.393       .  A
C2164      H2177   1.084       .  S
C2165      H2178   1.077       .  S
C2166      C2172   1.428       .  A
C2166      C2167   1.424       .  A
C2167      C2169   1.399       .  A
C2167      C2168   1.405       .  A
C2168      H2179   1.085       .  S
C2169      C2170   1.390       .  A
C2169      H2180   1.084       .  S
C2170      C2171   1.400       .  A
C2170      H2181   1.084       .  S
C2171      C2172   1.422       .  A
C2171      C2176   1.403       .  A
C2173      C2174   1.395       .  A
C2173      H2182   1.077       .  S
C2174      H2183   1.083       .  S
C2175      C2176   1.401       .  A
C2176      H2184   1.085       .  S
C2185      C2190   1.405       .  A
C2186      C2187   1.392       .  A
C2186      H2199   1.083       .  S
C2187      C2188   1.413   1_655  A
C2187      H2200   1.077       .  S
C2188      C2194   1.428       .  A
C2189      C2191   1.401       .  A
C2189      C2190   1.409       .  A
C2190      H2201   1.084       .  S
C2191      C2192   1.393       .  A
C2191      H2202   1.084       .  S
C2192      C2193   1.400       .  A
C2192      H2203   1.084       .  S
C2193      C2198   1.407       .  A
C2194      C2195   1.415       .  A
C2195      C2196   1.393       .  A
C2195      H2204   1.077   1_455  S
C2196      H2205   1.084   1_455  S
C2197      C2198   1.402       .  A
C2198      H2206   1.084       .  S
C2207      C2208   1.402       .  A
C2208      C2209   1.398       .  A
C2208      H2221   1.083       .  S
C2209      H2222   1.077       .  S
C2210      C2216   1.432       .  A
C2210      C2211   1.423       .  A
C2211      C2213   1.399   1_455  A
C2211      C2212   1.406   1_455  A
C2212      H2223   1.084       .  S
C2213      C2214   1.390       .  A
C2213      H2224   1.084       .  S
C2214      C2215   1.399   1_655  A
C2214      H2225   1.084       .  S
C2215      C2216   1.423       .  A
C2215      C2220   1.405       .  A
C2217      C2218   1.398       .  A
C2217      H2226   1.077       .  S
C2218      C2219   1.398       .  A
C2218      H2227   1.083       .  S
C2220      H2228   1.085   1_455  S
C2229      C2230   1.409       .  A
C2230      C2231   1.401       .  A
C2230      H2243   1.078       .  S
C2231      C2232   1.414       .  A
C2231      H2244   1.078       .  S
C2232      C2238   1.433       .  A
C2233      C2235   1.401       .  A
C2233      C2234   1.406       .  A
C2234      H2245   1.084       .  S
C2235      C2236   1.393       .  A
C2235      H2246   1.084       .  S
C2236      C2237   1.400       .  A
C2236      H2247   1.084       .  S
C2237      C2242   1.412       .  A
C2238      C2239   1.414       .  A
C2239      C2240   1.398       .  A
C2239      H2248   1.078       .  S
C2240      C2241   1.399       .  A
C2240      H2249   1.084       .  S
C2242      H2250   1.084       .  S
C2251      C2256   1.415       .  A
C2252      C2253   1.405       .  A
C2252      H2265   1.083       .  S
C2253      C2254   1.415       .  A
C2253      H2266   1.078       .  S
C2254      C2260   1.437       .  A
C2255      C2257   1.400       .  A
C2255      C2256   1.403       .  A
C2256      H2267   1.078       .  S
C2257      C2258   1.387       .  A
C2257      H2268   1.084       .  S
C2258      C2259   1.397       .  A
C2258      H2269   1.084       .  S
C2259      C2264   1.405       .  A
C2260      C2261   1.416       .  A
C2261      C2262   1.404       .  A
C2261      H2270   1.078       .  S
C2262      H2271   1.083       .  S
C2263      C2264   1.401       .  A
C2264      H2272   1.084       .  S
C2273      C2274   1.412       .  A
C2274      C2275   1.402       .  A
C2274      H2287   1.083       .  S
C2275      C2276   1.414       .  A
C2275      H2288   1.078       .  S
C2276      C2282   1.435       .  A
C2277      C2279   1.401       .  A
C2277      C2278   1.405       .  A
C2278      H2289   1.078       .  S
C2279      C2280   1.389       .  A
C2279      H2290   1.084       .  S
C2280      C2281   1.398       .  A
C2280      H2291   1.084       .  S
C2281      C2286   1.407       .  A
C2282      C2283   1.415       .  A
C2283      C2284   1.402       .  A
C2283      H2292   1.078       .  S
C2284      H2293   1.083       .  S
C2285      C2286   1.402   1_545  A
C2286      H2294   1.084       .  S
C2295      C2300   1.399       .  A
C2296      C2297   1.398       .  A
C2296      H2309   1.084       .  S
C2297      H2310   1.078       .  S
C2298      C2304   1.432       .  A
C2298      C2299   1.425       .  A
C2299      C2301   1.399       .  A
C2299      C2300   1.409       .  A
C2300      H2311   1.084       .  S
C2301      C2302   1.392       .  A
C2301      H2312   1.084       .  S
C2302      C2303   1.401       .  A
C2302      H2313   1.084       .  S
C2303      C2304   1.417       .  A
C2303      C2308   1.404       .  A
C2305      C2306   1.402       .  A
C2305      H2314   1.079       .  S
C2306      H2315   1.078       .  S
C2307      C2308   1.416       .  A
C2308      H2316   1.084       .  S
C2317      C2318   1.401       .  A
C2318      H2331   1.083       .  S
C2319      C2320   1.414   1_565  A
C2319      H2332   1.077       .  S
C2320      C2326   1.428       .  A
C2320      C2321   1.422       .  A
C2321      C2323   1.400       .  A
C2321      C2322   1.405       .  A
C2322      H2333   1.084       .  S
C2323      C2324   1.390       .  A
C2323      H2334   1.084       .  S
C2324      C2325   1.399       .  A
C2324      H2335   1.084       .  S
C2325      C2326   1.423       .  A
C2325      C2330   1.404       .  A
C2326      C2327   1.415   1_545  A
C2327      H2336   1.077       .  S
C2328      C2329   1.397       .  A
C2328      H2337   1.084       .  S
C2330      H2338   1.085       .  S
C2339      C2340   1.401   1_545  A
C2340      C2341   1.399       .  A
C2340      H2353   1.083       .  S
C2341      H2354   1.077       .  S
C2342      C2348   1.431       .  A
C2342      C2343   1.422       .  A
C2343      C2345   1.399       .  A
C2343      C2344   1.403       .  A
C2344      H2355   1.085       .  S
C2345      C2346   1.388       .  A
C2345      H2356   1.084       .  S
C2346      C2347   1.398       .  A
C2346      H2357   1.084       .  S
C2347      C2348   1.423       .  A
C2347      C2352   1.403       .  A
C2349      C2350   1.398       .  A
C2349      H2358   1.077       .  S
C2350      H2359   1.083       .  S
C2351      C2352   1.398       .  A
C2352      H2360   1.085       .  S
C2361      C2366   1.416       .  A
C2362      C2363   1.401       .  A
C2362      H2375   1.083       .  S
C2363      C2364   1.413       .  A
C2363      H2376   1.078       .  S
C2364      C2370   1.433       .  A
C2365      C2367   1.401       .  A
C2365      C2366   1.404       .  A
C2366      H2377   1.077       .  S
C2367      C2368   1.389       .  A
C2367      H2378   1.084       .  S
C2368      C2369   1.398       .  A
C2368      H2379   1.084       .  S
C2369      C2374   1.406       .  A
C2370      C2371   1.414       .  A
C2371      C2372   1.400       .  A
C2371      H2380   1.078       .  S
C2372      H2381   1.083       .  S
C2373      C2374   1.402       .  A
C2374      H2382   1.084       .  S
C2383      C2384   1.409   1_545  A
C2384      H2397   1.078       .  S
C2385      C2386   1.414       .  A
C2385      H2398   1.078       .  S
C2386      C2392   1.431       .  A
C2386      C2387   1.417       .  A
C2387      C2389   1.401       .  A
C2387      C2388   1.405       .  A
C2388      H2399   1.084       .  S
C2389      C2390   1.392       .  A
C2389      H2400   1.084       .  S
C2390      C2391   1.399       .  A
C2390      H2401   1.084       .  S
C2391      C2392   1.425       .  A
C2391      C2396   1.410       .  A
C2392      C2393   1.414       .  A
C2393      H2402   1.078       .  S
C2394      C2395   1.398       .  A
C2394      H2403   1.084       .  S
C2396      H2404   1.084       .  S
C2405      C2406   1.398       .  A
C2405      C2410   1.400       .  A
C2406      C2407   1.394       .  A
C2407      C2408   1.415       .  A
C2407      H2420   1.077       .  S
C2408      C2414   1.429       .  A
C2408      C2409   1.423       .  A
C2409      C2411   1.399       .  A
C2409      C2410   1.404       .  A
C2410      H2421   1.085       .  S
C2411      C2412   1.390       .  A
C2411      H2422   1.084       .  S
C2412      C2413   1.399       .  A
C2412      H2423   1.084       .  S
C2413      C2414   1.423       .  A
C2413      C2418   1.404       .  A
C2414      C2415   1.416       .  A
C2415      C2416   1.395       .  A
C2415      H2424   1.077       .  S
C2416      C2417   1.398       .  A
C2417      C2418   1.399       .  A
C2418      H2426   1.085       .  S
C2427      C2432   1.399       .  A
C2428      C2429   1.395       .  A
C2428      H2441   1.083   1_556  S
C2429      H2442   1.077       .  S
C2430      C2436   1.428       .  A
C2430      C2431   1.423       .  A
C2431      C2433   1.399       .  A
C2431      C2432   1.402       .  A
C2432      H2443   1.085       .  S
C2433      C2434   1.388       .  A
C2433      H2444   1.084       .  S
C2434      C2435   1.398       .  A
C2434      H2445   1.084       .  S
C2435      C2436   1.423       .  A
C2435      C2440   1.402       .  A
C2437      C2438   1.394       .  A
C2437      H2446   1.077       .  S
C2438      H2447   1.084       .  S
C2439      C2440   1.398       .  A
C2440      H2448   1.085       .  S
C2449      C2450   1.400       .  A
C2450      C2451   1.395       .  A
C2450      H2463   1.083       .  S
C2451      C2452   1.415       .  A
C2451      H2464   1.077       .  S
C2452      C2458   1.429       .  A
C2452      C2453   1.422   1_565  A
C2454      H2465   1.084       .  S
C2455      C2456   1.390       .  A
C2455      H2466   1.084       .  S
C2456      H2467   1.084       .  S
C2457      C2458   1.424   1_545  A
C2458      C2459   1.415       .  A
C2459      C2460   1.394       .  A
C2459      H2468   1.077       .  S
C2460      C2461   1.397       .  A
C2460      H2469   1.084       .  S
C2462      H2470   1.085       .  S
C2471      C2476   1.402       .  A
C2472      H2485   1.083       .  S
C2473      C2474   1.414       .  A
C2473      H2486   1.077       .  S
C2474      C2480   1.429       .  A
C2474      C2475   1.422       .  A
C2475      C2477   1.400       .  A
C2475      C2476   1.405       .  A
C2476      H2487   1.084       .  S
C2477      C2478   1.390       .  A
C2477      H2488   1.084       .  S
C2478      C2479   1.399       .  A
C2478      H2489   1.084       .  S
C2479      C2480   1.423       .  A
C2479      C2484   1.404       .  A
C2480      C2481   1.415       .  A
C2481      H2490   1.077       .  S
C2482      H2491   1.084       .  S
C2483      C2484   1.398       .  A
C2484      H2492   1.085       .  S
C2493      C2498   1.399       .  A
C2494      C2495   1.395       .  A
C2494      H2507   1.083       .  S
C2495      H2508   1.077       .  S
C2496      C2502   1.428       .  A
C2496      C2497   1.423       .  A
C2497      C2499   1.399       .  A
C2497      C2498   1.404       .  A
C2498      H2509   1.085       .  S
C2499      C2500   1.389       .  A
C2499      H2510   1.084       .  S
C2500      C2501   1.399       .  A
C2500      H2511   1.084       .  S
C2501      C2502   1.424       .  A
C2501      C2506   1.404       .  A
C2503      C2504   1.394       .  A
C2503      H2512   1.077       .  S
C2504      H2513   1.084       .  S
C2505      C2506   1.398       .  A
C2506      H2514   1.085       .  S
C2515      C2520   1.401       .  A
C2516      C2517   1.393       .  A
C2516      H2529   1.084       .  S
C2517      H2530   1.077       .  S
C2518      C2524   1.428       .  A
C2518      C2519   1.423       .  A
C2519      C2521   1.399       .  A
C2519      C2520   1.405       .  A
C2520      H2531   1.084       .  S
C2521      C2522   1.390       .  A
C2521      H2532   1.084       .  S
C2522      C2523   1.400       .  A
C2522      H2533   1.084       .  S
C2523      C2524   1.422       .  A
C2523      C2528   1.405       .  A
C2525      C2526   1.394       .  A
C2525      H2534   1.077       .  S
C2526      H2535   1.083       .  S
C2527      C2528   1.401       .  A
C2528      H2536   1.085       .  S
