geometry optimzed in LAMMPS
_audit_creation_date              2020-11-30 
_audit_creation_method            'lammps2cif' 
_symmetry_space_group_name_H-M    'P1' 
_symmetry_Int_Tables_number       1 
_symmetry_cell_setting            triclinic 
loop_ 
_symmetry_equiv_pos_as_xyz 
  x,y,z 
_cell_length_a                    29.72657296 
_cell_length_b                    29.783416814443978 
_cell_length_c                    35.428434720356876 
_cell_angle_alpha                 90.00415812895642 
_cell_angle_beta                  89.98675569665664 
_cell_angle_gamma                 120.01795982270257 
loop_ 
_atom_site_label 
_atom_site_type_symbol 
_atom_site_fract_x 
_atom_site_fract_y 
_atom_site_fract_z 
_atom_site_charge 
O1          O  0.40071383  0.17505878  0.92560056    -0.77300
C2          C  0.23596813  0.06084659  0.93674766     0.83800
O3          O  0.33310127  0.27698395  0.97187619    -0.78400
O4          O  0.22743679  0.12805763  0.04963256    -0.79900
O5          O  0.37285058  0.09805886  0.04971694    -0.79700
O6          O  0.44675152  0.16790407  0.97204643    -0.78300
Zn7        Zn  0.33468327  0.16651178  0.94595427     1.55700
O8          O  0.28592997  0.05747708  0.05108703    -0.79700
Cd9        Cd  0.39837117  0.16452707  0.01663484     1.59700
Cd10       Cd  0.33661119  0.23222544  0.01649224     1.59600
O11         O  0.44359375  0.22725216  0.05152678    -0.79700
O12         O  0.33458833  0.16650655  0.99929719    -1.90200
Cd13       Cd  0.26859649  0.10281396  0.01634679     1.59900
O14         O  0.40302577  0.27346020  0.04967638    -0.79600
O15         O  0.22384161  0.05451459  0.97163635    -0.78300
C16         C  0.32767574  0.26512281  0.93695439     0.84200
C17         C  0.44037798  0.17341393  0.93712377     0.83900
O18         O  0.27734054  0.10052073  0.92532853    -0.77200
C19         C  0.32884909  0.06162027  0.06149142     0.84700
O20         O  0.32620485  0.22394172  0.92545497    -0.77300
C21         C  0.43940558  0.26601366  0.06173652     0.84800
C22         C  0.23499591  0.17189965  0.06163105     0.85200
O23         O  0.27384914  0.21478548  0.05134824    -0.79800
O24         O  0.40002680  0.17760475  0.57539778    -0.77300
C25         C  0.32304599  0.26371776  0.56391895     0.83800
O26         O  0.22413420  0.05295573  0.52870681    -0.78400
O27         O  0.26987056  0.21287087  0.44979383    -0.79900
O28         O  0.44249522  0.22993896  0.44973171    -0.79700
O29         O  0.44688896  0.17132989  0.52916267    -0.78300
Zn30       Zn  0.33320088  0.16686398  0.55467011     1.55700
O31         O  0.39954690  0.27389074  0.45089386    -0.79700
Cd32       Cd  0.39801329  0.16654511  0.48430807     1.59700
Cd33       Cd  0.26821128  0.10204221  0.48411031     1.59600
O34         O  0.37404911  0.10026478  0.45094367    -0.79700
O35         O  0.33318912  0.16682101  0.50135009    -1.90200
Cd36       Cd  0.33332138  0.23175151  0.48430465     1.59900
O37         O  0.28708460  0.05761408  0.44946658    -0.79600
O38         O  0.32864711  0.27590898  0.52903501    -0.78300
C39         C  0.23637358  0.05959381  0.56357209     0.84200
C40         C  0.44024852  0.17684051  0.56406667     0.83900
O41         O  0.32226633  0.22279934  0.57525191    -0.77200
C42         C  0.43695330  0.26778806  0.43916982     0.84700
O43         O  0.27720036  0.09990505  0.57492556    -0.77300
C44         C  0.33054684  0.06298299  0.43909130     0.84800
C45         C  0.23196698  0.16947854  0.43923843     0.85200
O46         O  0.22587825  0.12603787  0.45092508    -0.79800
N47         N  0.39330376  0.50295291  0.69193954    -0.35400
N48         N  0.35491257  0.42303124  0.74957663    -0.55900
N49         N  0.39363621  0.50084168  0.80759764    -0.35400
N50         N  0.43407394  0.08051090  0.75004302    -0.55900
C51         C  0.38290796  0.46090905  0.67110632     0.28200
C52         C  0.42621665  0.04527388  0.67169306     0.28200
C53         C  0.38357907  0.45852043  0.82802047     0.28200
C54         C  0.42634264  0.04285294  0.82808532     0.28200
C55         C  0.32939517  0.39518026  0.71887775     0.36800
C56         C  0.32993744  0.39388963  0.77999964     0.36800
C57         C  0.43844748  0.10993832  0.71989452     0.36800
C58         C  0.43791163  0.10867983  0.78079834     0.36800
C59         C  0.40803847  0.47672613  0.63657674    -0.20700
C60         C  0.43529590  0.02994931  0.63694239    -0.20700
C61         C  0.40872362  0.47387698  0.86253273    -0.20700
C62         C  0.43572638  0.02707231  0.86256629    -0.20700
C63         C  0.28695958  0.34847907  0.72975328    -0.21700
C64         C  0.28729998  0.34767543  0.76872718    -0.21700
C65         C  0.44349861  0.15666603  0.73137089    -0.21700
C66         C  0.44314162  0.15586344  0.77030330    -0.21700
C67         C  0.34877705  0.40897324  0.68180560    -0.17100
C68         C  0.44530036  0.09717458  0.68301739    -0.17100
C69         C  0.44473641  0.09482461  0.81734055    -0.17100
C70         C  0.34959420  0.40670164  0.81705093    -0.17100
H71         H  0.40557722  0.45274282  0.61290932     0.15800
H72         H  0.45746136  0.05439953  0.61361785     0.15800
H73         H  0.40623973  0.44957954  0.88598586     0.15800
H74         H  0.45773851  0.05113606  0.88607309     0.15800
H75         H  0.26022032  0.31737259  0.71150600     0.14100
H76         H  0.26082159  0.31591727  0.78662790     0.14100
H77         H  0.44961970  0.18882752  0.71362869     0.14100
H78         H  0.44903542  0.18735060  0.78872063     0.14100
H79         H  0.37474711  0.50269470  0.71689230     0.27400
H80         H  0.37497568  0.50116563  0.78286948     0.27400
N81         N  0.10977201  0.10725582  0.80734531    -0.35400
N82         N  0.06927759  0.14510271  0.74938751    -0.55900
N83         N  0.10976932  0.10606365  0.69170833    -0.35400
N84         N  0.14798330  0.06619460  0.74968790    -0.55900
C85         C  0.07768439  0.11747268  0.82791726     0.28200
C86         C  0.11934624  0.07474514  0.82784596     0.28200
C87         C  0.07789079  0.11634370  0.67096896     0.28200
C88         C  0.11912661  0.07314496  0.67147402     0.28200
C89         C  0.06579697  0.17045758  0.77980905     0.36800
C90         C  0.06629864  0.17022491  0.71867420     0.36800
C91         C  0.17290071  0.06265238  0.78021874     0.36800
C92         C  0.17259197  0.06159538  0.71933170     0.36800
C93         C  0.06830605  0.09266046  0.86253468    -0.20700
C94         C  0.09452907  0.06564776  0.86247103    -0.20700
C95         C  0.06833134  0.09107971  0.63651273    -0.20700
C96         C  0.09444008  0.06392479  0.63681380    -0.20700
C97         C  0.06197394  0.21290619  0.76850815    -0.21700
C98         C  0.06229830  0.21276807  0.72952802    -0.21700
C99         C  0.21478368  0.05737583  0.76936839    -0.21700
C100        C  0.21458267  0.05670055  0.73043827    -0.21700
C101        C  0.05959370  0.15124993  0.81694777    -0.17100
C102        C  0.15278671  0.05618505  0.81692161    -0.17100
C103        C  0.15229070  0.05433154  0.68265242    -0.17100
C104        C  0.06020360  0.15057577  0.68165697    -0.17100
H105        H  0.04667274  0.09530223  0.88608572     0.15800
H106        H  0.09675746  0.04373286  0.88596618     0.15800
H107        H  0.04664644  0.09347048  0.61290519     0.15800
H108        H  0.09675161  0.04185943  0.61345254     0.15800
H109        H  0.05707659  0.23958924  0.78642527     0.14100
H110        H  0.05761499  0.23929871  0.71129108     0.14100
H111        H  0.24075249  0.05167841  0.78756186     0.14100
H112        H  0.24040046  0.05045688  0.71246884     0.14100
H113        H  0.12839538  0.12565867  0.78245055     0.27400
H114        H  0.12836042  0.12474984  0.71652923     0.27400
N115        N  0.49992591  0.39122020  0.80730898    -0.35400
N116        N  0.41984424  0.35284085  0.74977699    -0.55900
N117        N  0.99724202  0.39045466  0.69167302    -0.35400
N118        N  0.07758500  0.43116073  0.74923181    -0.55900
C119        C  0.45787360  0.38166413  0.82790508     0.28200
C120        C  0.04235259  0.42338703  0.82777312     0.28200
C121        C  0.45484603  0.38125118  0.67153856     0.28200
C122        C  0.03935300  0.42217875  0.67086481     0.28200
C123        C  0.39181159  0.32798521  0.78046671     0.36800
C124        C  0.39019743  0.32820274  0.71959120     0.36800
C125        C  0.10692861  0.43507676  0.77947944     0.36800
C126        C  0.10530113  0.43377542  0.71836496     0.36800
C127        C  0.47372501  0.40651871  0.86249543    -0.20700
C128        C  0.02702318  0.43285277  0.86240567    -0.19900
C129        C  0.47018919  0.40590118  0.63688413    -0.20700
C130        C  0.02350589  0.43174938  0.63644923    -0.20700
C131        C  0.34448743  0.28614240  0.76987864    -0.21700
C132        C  0.34346999  0.28628159  0.73095757    -0.21700
C133        C  0.15314636  0.43880764  0.76792213    -0.21700
C134        C  0.15212533  0.43799008  0.72894960    -0.21700
C135        C  0.40580102  0.34819052  0.81710621    -0.17100
C136        C  0.09424685  0.44148837  0.81666900    -0.17100
C137        C  0.09134801  0.43971490  0.68144249    -0.17100
C138        C  0.40286566  0.34826834  0.68283732    -0.17100
H139        H  0.44964127  0.40423527  0.88608057     0.15800
H140        H  0.05141424  0.45463399  0.88585830     0.15800
H141        H  0.44569174  0.40376416  0.61363047     0.15800
H142        H  0.04750758  0.45325898  0.61276512     0.15800
H143        H  0.31304297  0.26023681  0.78826285     0.14100
H144        H  0.31117802  0.26044276  0.71318165     0.14100
H145        H  0.18503529  0.44394902  0.78564557     0.14100
H146        H  0.18318278  0.44254574  0.71052136     0.14100
H147        H  0.99951833  0.37249893  0.78245026     0.27400
H148        H  0.99753580  0.37192980  0.71644631     0.27400
C149        C  0.02988758  0.19832915  0.59123239     0.03500
C150        C  0.47498363  0.17588766  0.59378958     0.03500
C151        C  0.44942585  0.14707911  0.62627588    -0.17000
C152        C  0.47609165  0.13899901  0.65538437     0.03500
C153        C  0.03065416  0.16263628  0.65349920     0.03500
C154        C  0.05672893  0.19208768  0.62168779    -0.17000
H155        H  0.09865312  0.20951401  0.62043228     0.05500
H156        H  0.40734721  0.12720965  0.62795648     0.05500
C157        C  0.20090837  0.02480931  0.59328041     0.03500
C158        C  0.16859811  0.46998335  0.59079731     0.03500
C159        C  0.13597908  0.44316012  0.62142384    -0.17000
C160        C  0.13273170  0.46920809  0.65322977     0.03500
C161        C  0.16331921  0.02366229  0.65498450     0.03500
C162        C  0.19776000  0.05031271  0.62578226    -0.17000
H163        H  0.21976176  0.09232365  0.62742353     0.05500
H164        H  0.11166322  0.40128442  0.62029174     0.05500
C165        C  0.30249624  0.32943148  0.90779714     0.03500
C166        C  0.32936001  0.30112833  0.90736874     0.03500
C167        C  0.35933215  0.30518880  0.87545632    -0.17000
C168        C  0.36459433  0.33714968  0.84504267     0.03500
C169        C  0.33774798  0.36494907  0.84513953     0.03500
C170        C  0.30671691  0.36018148  0.87617757    -0.17000
H171        H  0.28745313  0.38297583  0.87634038     0.05500
H172        H  0.38146349  0.28521895  0.87492219     0.05500
C173        C  0.32398542  0.29929719  0.59364207     0.03500
C174        C  0.30124500  0.33142867  0.59124469     0.03500
C175        C  0.30718606  0.36410667  0.62186237    -0.17000
C176        C  0.33680893  0.36756235  0.65359357     0.03500
C177        C  0.36090464  0.33712755  0.65525233     0.03500
C178        C  0.35300963  0.30267502  0.62602786    -0.17000
H179        H  0.37315035  0.28077077  0.62755452     0.05500
H180        H  0.28949440  0.38831630  0.62076292     0.05500
C181        C  0.17178827  0.47139036  0.90735389     0.03500
C182        C  0.20001774  0.02654705  0.90706882     0.03500
C183        C  0.19594297  0.05253169  0.87522233    -0.17000
C184        C  0.16393108  0.02595818  0.84475380     0.03500
C185        C  0.13616862  0.47132775  0.84472658     0.03500
C186        C  0.14106182  0.44498291  0.87565876    -0.17000
H187        H  0.11830216  0.40294610  0.87571517     0.05500
H188        H  0.21590629  0.09460127  0.87481152     0.05500
C189        C  0.47460135  0.17152202  0.90752318     0.03500
C190        C  0.02982612  0.19870143  0.90767421     0.03500
C191        C  0.05623978  0.19444624  0.87596084    -0.17000
C192        C  0.02976701  0.16311315  0.84510535     0.03500
C193        C  0.47504688  0.13602217  0.84524972     0.03500
C194        C  0.44847661  0.14123610  0.87580265    -0.17000
H195        H  0.40632801  0.11895414  0.87549905     0.05500
H196        H  0.09836308  0.21390429  0.87591485     0.05500
O197        O  0.09977145  0.32269733  0.42413561    -0.77300
C198        C  0.26366545  0.44044021  0.43538697     0.83800
O199        O  0.17105448  0.22432862  0.47018444    -0.78400
O200        O  0.27378463  0.37406966  0.54841788    -0.79900
O201        O  0.12578088  0.39977570  0.54815902    -0.79700
O202        O  0.05268157  0.32853263  0.47040996    -0.78300
Zn203      Zn  0.16660493  0.33340303  0.44449631     1.55700
O204        O  0.21276852  0.44248903  0.54930485    -0.79700
Cd205      Cd  0.10169250  0.33340205  0.51505228     1.59700
Cd206      Cd  0.16622609  0.26833699  0.51490833     1.59600
O207        O  0.05735780  0.27015542  0.54982954    -0.79700
O208        O  0.16650710  0.33327624  0.49779246    -1.90200
Cd209      Cd  0.23161273  0.39796588  0.51488414     1.59900
O210        O  0.09997384  0.22591765  0.54827277    -0.79600
O211        O  0.27589653  0.44692799  0.47025882    -0.78300
C212        C  0.17658107  0.23647262  0.43529526     0.84200
C213        C  0.05946126  0.32323924  0.43551039     0.83900
O214        O  0.22268984  0.40029250  0.42401408    -0.77200
C215        C  0.16936370  0.43710393  0.55981875     0.84700
O216        O  0.17728025  0.27734005  0.42393396    -0.77300
C217        C  0.06275493  0.23215936  0.56022784     0.84800
C218        C  0.26751746  0.33059820  0.56020627     0.85200
O219        O  0.22957132  0.28725117  0.54959992    -0.79800
O220        O  0.17602240  0.39837149  0.92605659    -0.77300
C221        C  0.26684951  0.32751656  0.93768905     0.83800
O222        O  0.05700553  0.22223148  0.97236693    -0.78400
O223        O  0.21747875  0.27298348  0.05210386    -0.79900
O224        O  0.22795160  0.44303095  0.05160974    -0.79700
O225        O  0.16750507  0.44398995  0.97209458    -0.78300
Zn226      Zn  0.16801336  0.33327364  0.94706595     1.55700
O227        O  0.27490490  0.40315053  0.05028034    -0.79700
Cd228      Cd  0.16480209  0.39653537  0.01721110     1.59700
Cd229      Cd  0.10446515  0.26695340  0.01745734     1.59600
O230        O  0.09784821  0.37038808  0.05030199    -0.79700
O231        O  0.16791601  0.33320765  0.00043901    -1.90200
Cd232      Cd  0.23425784  0.33606993  0.01752378     1.59900
O233        O  0.05812679  0.28367234  0.05215311    -0.79600
O234        O  0.27921555  0.33337165  0.97253793    -0.78300
C235        C  0.06359221  0.23445007  0.93749070     0.84200
C236        C  0.17360531  0.43761572  0.93725896     0.83900
O237        O  0.22524258  0.32529961  0.92643434    -0.77200
C238        C  0.26720537  0.43956880  0.06183925     0.84700
O239        O  0.10296528  0.27600592  0.92620453    -0.77300
C240        C  0.06155242  0.32638127  0.06220585     0.84800
C241        C  0.17464216  0.23365085  0.06205136     0.85200
O242        O  0.13060147  0.22601950  0.05020832    -0.79800
N243        N  0.00324703  0.10968116  0.30737761    -0.35400
N244        N  0.42338934  0.06862058  0.24987743    -0.55900
N245        N  0.50157594  0.10829417  0.19177529    -0.35400
N246        N  0.08118464  0.14700697  0.24927115    -0.55900
C247        C  0.46113972  0.07795045  0.32822151     0.28200
C248        C  0.04561905  0.11908313  0.32758067     0.28200
C249        C  0.45913642  0.07607749  0.17135136     0.28200
C250        C  0.04368444  0.11777706  0.17120993     0.28200
C251        C  0.39538966  0.06598749  0.28058644     0.36800
C252        C  0.39431523  0.06470393  0.21948505     0.36800
C253        C  0.11047530  0.17196343  0.27950646     0.36800
C254        C  0.10949882  0.17167855  0.21862417     0.36800
C255        C  0.47696836  0.06854485  0.36268910    -0.20700
C256        C  0.03027596  0.09459106  0.36229933    -0.20700
C257        C  0.47450444  0.06649665  0.13676627    -0.20700
C258        C  0.02784612  0.09276398  0.13669114    -0.20700
C259        C  0.34864894  0.06174792  0.26976669    -0.21700
C260        C  0.34796890  0.06092956  0.23079591    -0.21700
C261        C  0.15726990  0.21387176  0.26820639    -0.21700
C262        C  0.15665108  0.21369842  0.22927882    -0.21700
C263        C  0.40914915  0.06022471  0.31759365    -0.17100
C264        C  0.09757768  0.15209876  0.31629138    -0.17100
C265        C  0.09578006  0.15130538  0.18200833    -0.17100
C266        C  0.40721299  0.05811706  0.18240936    -0.17100
H267        H  0.45294604  0.04696093  0.38634962     0.15800
H268        H  0.05476450  0.09693449  0.38561992     0.15800
H269        H  0.45009615  0.04470087  0.11332550     0.15800
H270        H  0.05198683  0.09489160  0.11318382     0.15800
H271        H  0.31745045  0.05720343  0.28803522     0.14100
H272        H  0.31620361  0.05574091  0.21290939     0.14100
H273        H  0.18935391  0.23991576  0.28605983     0.14100
H274        H  0.18821906  0.23955429  0.21096269     0.14100
H275        H  0.50305045  0.12809432  0.28253068     0.27400
H276        H  0.50186791  0.12705630  0.21656535     0.27400
N277        N  0.39059380  0.39367900  0.30746855    -0.35400
N278        N  0.35318883  0.43374659  0.24940060    -0.55900
N279        N  0.39194176  0.39248838  0.19179803    -0.35400
N280        N  0.43190392  0.35474802  0.24988141    -0.55900
C281        C  0.38119637  0.42660682  0.32768608     0.28200
C282        C  0.42226916  0.38328062  0.32831302     0.28200
C283        C  0.38224753  0.42485648  0.17122359     0.28200
C284        C  0.42424711  0.38238346  0.17132825     0.28200
C285        C  0.32832791  0.43842229  0.27959295     0.36800
C286        C  0.32834711  0.43693983  0.21870922     0.36800
C287        C  0.43435062  0.32950253  0.28068701     0.36800
C288        C  0.43599979  0.32955941  0.21957819     0.36800
C289        C  0.40566394  0.43572118  0.36241672    -0.20700
C290        C  0.43161491  0.40842760  0.36281643    -0.20700
C291        C  0.40716596  0.43393652  0.13663286    -0.20700
C292        C  0.43366942  0.40715689  0.13670670    -0.20700
C293        C  0.28631020  0.44308547  0.26822933    -0.21700
C294        C  0.28631758  0.44214748  0.22930494    -0.21700
C295        C  0.43867293  0.28707333  0.27000736    -0.21700
C296        C  0.43972093  0.28711645  0.23104216    -0.21700
C297        C  0.34823385  0.44558122  0.31639080    -0.17100
C298        C  0.43999160  0.34907018  0.31768134    -0.17100
C299        C  0.44252107  0.34876142  0.18241990    -0.17100
C300        C  0.34867173  0.44334225  0.18207031    -0.17100
H301        H  0.40338050  0.45788387  0.38572665     0.15800
H302        H  0.45309227  0.40591196  0.38651283     0.15800
H303        H  0.40485491  0.45572366  0.11308276     0.15800
H304        H  0.45557781  0.40467387  0.11327406     0.15800
H305        H  0.26027752  0.44924079  0.28602042     0.14100
H306        H  0.26034705  0.44758974  0.21093018     0.14100
H307        H  0.44311521  0.26051238  0.28837785     0.14100
H308        H  0.44496160  0.26052803  0.21326455     0.14100
H309        H  0.37223984  0.37506457  0.28257461     0.27400
H310        H  0.37325238  0.37418232  0.21668966     0.27400
C311        C  0.33151702  0.03005261  0.40815804     0.03500
C312        C  0.29929333  0.47519279  0.40570677     0.03500
C313        C  0.30261497  0.44964359  0.37326763    -0.17000
C314        C  0.33707928  0.47626419  0.34403272     0.03500
C315        C  0.36767147  0.03073778  0.34579061     0.03500
C316        C  0.36431540  0.05681538  0.37757663    -0.17000
H317        H  0.38863383  0.09868792  0.37870933     0.05500
H318        H  0.28065600  0.40762708  0.37169171     0.05500
N319        N  0.10859966  0.99884979  0.19192079    -0.35400
N320        N  0.06705672  0.41925413  0.24954800    -0.55900
N321        N  0.10663515  0.99698468  0.30758305    -0.35400
N322        N  0.14596617  0.07681409  0.24997576    -0.55900
C323        C  0.07616232  0.45676424  0.17135963     0.28200
C324        C  0.11874802  0.04114662  0.17140970     0.28200
C325        C  0.07362304  0.45465958  0.32777604     0.28200
C326        C  0.11682888  0.03902399  0.32835169     0.28200
C327        C  0.06390362  0.39107627  0.21896687     0.36800
C328        C  0.06226354  0.38993376  0.27985952     0.36800
C329        C  0.17145178  0.10589800  0.21966469     0.36800
C330        C  0.17097398  0.10474158  0.28078021     0.36800
C331        C  0.06706035  0.47247504  0.13675333    -0.20700
C332        C  0.09395437  0.02571295  0.13677791    -0.20700
C333        C  0.06426334  0.46998064  0.36243110    -0.20700
C334        C  0.09144587  0.02319767  0.36278695    -0.20700
C335        C  0.05863813  0.34397368  0.22975311    -0.21700
C336        C  0.05759984  0.34325453  0.26868164    -0.21700
C337        C  0.21386415  0.15217105  0.23113035    -0.21700
C338        C  0.21357196  0.15143767  0.27010318    -0.21700
C339        C  0.05759831  0.40479076  0.18225060    -0.17100
C340        C  0.15240469  0.09302292  0.18247708    -0.17100
C341        C  0.15110011  0.09095485  0.31772377    -0.17100
C342        C  0.05482022  0.40276835  0.31655948    -0.17100
H343        H  0.04512884  0.44831200  0.11325214     0.15800
H344        H  0.09646496  0.05002478  0.11331756     0.15800
H345        H  0.04206644  0.44554121  0.38574656     0.15800
H346        H  0.09377989  0.04715827  0.38642917     0.15800
H347        H  0.05319552  0.31249520  0.21150082     0.14100
H348        H  0.05132252  0.31118550  0.28659245     0.14100
H349        H  0.24062554  0.18390472  0.21333119     0.14100
H350        H  0.24002129  0.18256809  0.28845842     0.14100
H351        H  0.12693592  0.99861680  0.21684552     0.27400
H352        H  0.12544307  0.99724425  0.28277631     0.27400
C353        C  0.32884648  0.02843014  0.09244440     0.03500
C354        C  0.30072323  0.47325164  0.09260650     0.03500
C355        C  0.30513284  0.44699710  0.12397531    -0.17000
C356        C  0.33758097  0.47359868  0.15426873     0.03500
C357        C  0.36532641  0.02833370  0.15438854     0.03500
C358        C  0.36006654  0.05489594  0.12374293    -0.17000
H359        H  0.38238755  0.09695397  0.12369752     0.05500
H360        H  0.28470100  0.40490937  0.12423016     0.05500
C361        C  0.19821283  0.16854352  0.40823988     0.03500
C362        C  0.17577752  0.20091906  0.40562232     0.03500
C363        C  0.14716841  0.19775158  0.37306516    -0.17000
C364        C  0.13935243  0.16321067  0.34393894     0.03500
C365        C  0.16298261  0.13238738  0.34589302     0.03500
C366        C  0.19223797  0.13568031  0.37776178    -0.17000
H367        H  0.20971075  0.11128277  0.37903307     0.05500
H368        H  0.12722722  0.21983518  0.37132578     0.05500
C369        C  0.20158725  0.17172636  0.09258397     0.03500
C370        C  0.17445826  0.19982368  0.09274050     0.03500
C371        C  0.14329686  0.19499244  0.12396253    -0.17000
C372        C  0.13728691  0.16243310  0.15421757     0.03500
C373        C  0.16447559  0.13483625  0.15440088     0.03500
C374        C  0.19657423  0.14029477  0.12380952    -0.17000
H375        H  0.21639761  0.11803599  0.12376313     0.05500
H376        H  0.12151139  0.21532186  0.12417220     0.05500
C377        C  0.02483516  0.32424391  0.40581918     0.03500
C378        C  0.46991555  0.30160614  0.40822568     0.03500
C379        C  0.44317829  0.30765120  0.37765151    -0.17000
C380        C  0.46941029  0.33712473  0.34591328     0.03500
C381        C  0.02397655  0.36100162  0.34419412     0.03500
C382        C  0.05055001  0.35316649  0.37343247    -0.17000
H383        H  0.09264795  0.37323319  0.37188964     0.05500
H384        H  0.40122950  0.29008455  0.37875251     0.05500
C385        C  0.02780861  0.32640531  0.09296294     0.03500
C386        C  0.47252605  0.29946351  0.09268183     0.03500
C387        C  0.44592009  0.30467652  0.12375749    -0.17000
C388        C  0.47243029  0.33663909  0.15440467     0.03500
C389        C  0.02729110  0.36339069  0.15445449     0.03500
C390        C  0.05402204  0.35731080  0.12428654    -0.17000
H391        H  0.09618829  0.37891936  0.12460649     0.05500
H392        H  0.40379361  0.28504920  0.12357001     0.05500
O393        O  0.40071378  0.67505869  0.92560053    -0.77300
C394        C  0.23596810  0.56084658  0.93674768     0.83800
O395        O  0.33310116  0.77698383  0.97187617    -0.78400
O396        O  0.22743674  0.62805773  0.04963251    -0.79900
O397        O  0.37285062  0.59805872  0.04971696    -0.79700
O398        O  0.44675141  0.66790395  0.97204643    -0.78300
Zn399      Zn  0.33468331  0.66651168  0.94595427     1.55700
O400        O  0.28593002  0.55747709  0.05108698    -0.79700
Cd401      Cd  0.39837106  0.66452695  0.01663485     1.59700
Cd402      Cd  0.33661110  0.73222535  0.01649222     1.59600
O403        O  0.44359381  0.72725209  0.05152677    -0.79700
O404        O  0.33458826  0.66650651  0.99929718    -1.90200
Cd405      Cd  0.26859644  0.60281405  0.01634679     1.59900
O406        O  0.40302572  0.77346001  0.04967639    -0.79600
O407        O  0.22384158  0.55451461  0.97163637    -0.78300
C408        C  0.32767570  0.76512271  0.93695436     0.84200
C409        C  0.44037792  0.67341386  0.93712376     0.83900
O410        O  0.27734052  0.60052069  0.92532853    -0.77200
C411        C  0.32884909  0.56162020  0.06149142     0.84700
O412        O  0.32620481  0.72394161  0.92545496    -0.77300
C413        C  0.43940558  0.76601355  0.06173652     0.84800
C414        C  0.23499601  0.67189975  0.06163107     0.85200
O415        O  0.27384928  0.71478556  0.05134829    -0.79800
O416        O  0.40002666  0.67760462  0.57539779    -0.77300
C417        C  0.32304609  0.76371782  0.56391895     0.83800
O418        O  0.22413411  0.55295583  0.52870688    -0.78400
O419        O  0.26987055  0.71287091  0.44979384    -0.79900
O420        O  0.44249524  0.72993908  0.44973170    -0.79700
O421        O  0.44688883  0.67132983  0.52916267    -0.78300
Zn422      Zn  0.33320079  0.66686394  0.55467010     1.55700
O423        O  0.39954697  0.77389094  0.45089390    -0.79700
Cd424      Cd  0.39801330  0.66654523  0.48430804     1.59700
Cd425      Cd  0.26821120  0.60204215  0.48411034     1.59600
O426        O  0.37404917  0.60026478  0.45094367    -0.79700
O427        O  0.33318908  0.66682102  0.50135007    -1.90200
Cd428      Cd  0.33332143  0.73175166  0.48430466     1.59900
O429        O  0.28708465  0.55761406  0.44946662    -0.79600
O430        O  0.32864727  0.77590916  0.52903504    -0.78300
C431        C  0.23637352  0.55959389  0.56357216     0.84200
C432        C  0.44024839  0.67684040  0.56406668     0.83900
O433        O  0.32226647  0.72279941  0.57525186    -0.77200
C434        C  0.43695334  0.76778821  0.43916984     0.84700
O435        O  0.27720029  0.59990514  0.57492563    -0.77300
C436        C  0.33054688  0.56298297  0.43909132     0.84800
C437        C  0.23196702  0.66947854  0.43923843     0.85200
O438        O  0.22587826  0.62603786  0.45092510    -0.79800
N439        N  0.39330377  0.00295294  0.69193957    -0.35400
N440        N  0.35491257  0.92303134  0.74957663    -0.55900
N441        N  0.39363639  0.00084184  0.80759762    -0.35400
N442        N  0.43407388  0.58051075  0.75004299    -0.55900
C443        C  0.38290798  0.96090909  0.67110634     0.28200
C444        C  0.42621676  0.54527383  0.67169308     0.28200
C445        C  0.38357930  0.95852057  0.82802047     0.28200
C446        C  0.42634248  0.54285277  0.82808529     0.28200
C447        C  0.32939527  0.89518023  0.71887776     0.36800
C448        C  0.32993748  0.89388973  0.77999966     0.36800
C449        C  0.43844748  0.60993823  0.71989450     0.36800
C450        C  0.43791172  0.60867973  0.78079831     0.36800
C451        C  0.40803855  0.97672623  0.63657680    -0.20700
C452        C  0.43529601  0.52994924  0.63694240    -0.20700
C453        C  0.40872388  0.97387715  0.86253270    -0.20700
C454        C  0.43572617  0.52707213  0.86256630    -0.20700
C455        C  0.28695974  0.84847901  0.72975330    -0.21700
C456        C  0.28730006  0.84767548  0.76872721    -0.21700
C457        C  0.44349860  0.65666593  0.73137088    -0.21700
C458        C  0.44314170  0.65586335  0.77030330    -0.21700
C459        C  0.34877710  0.90897325  0.68180558    -0.17100
C460        C  0.44530042  0.59717452  0.68301738    -0.17100
C461        C  0.44473652  0.59482449  0.81734051    -0.17100
C462        C  0.34959424  0.90670179  0.81705096    -0.17100
H463        H  0.40557746  0.95274300  0.61290936     0.15800
H464        H  0.45746157  0.55439949  0.61361790     0.15800
H465        H  0.40623986  0.94957973  0.88598589     0.15800
H466        H  0.45773847  0.55113589  0.88607303     0.15800
H467        H  0.26022051  0.81737248  0.71150604     0.14100
H468        H  0.26082161  0.81591739  0.78662795     0.14100
H469        H  0.44961963  0.68882740  0.71362867     0.14100
H470        H  0.44903557  0.68735050  0.78872066     0.14100
H471        H  0.37474727  0.00269480  0.71689234     0.27400
H472        H  0.37497585  0.00116580  0.78286968     0.27400
N473        N  0.10977193  0.60725576  0.80734527    -0.35400
N474        N  0.06927763  0.64510268  0.74938755    -0.55900
N475        N  0.10976927  0.60606356  0.69170836    -0.35400
N476        N  0.14798348  0.56619478  0.74968791    -0.55900
C477        C  0.07768432  0.61747262  0.82791730     0.28200
C478        C  0.11934618  0.57474507  0.82784594     0.28200
C479        C  0.07789074  0.61634361  0.67096898     0.28200
C480        C  0.11912661  0.57314494  0.67147400     0.28200
C481        C  0.06579695  0.67045753  0.77980906     0.36800
C482        C  0.06629860  0.67022480  0.71867421     0.36800
C483        C  0.17290082  0.56265256  0.78021876     0.36800
C484        C  0.17259203  0.56159532  0.71933172     0.36800
C485        C  0.06830606  0.59266040  0.86253473    -0.20700
C486        C  0.09452909  0.56564770  0.86247102    -0.20700
C487        C  0.06833127  0.59107964  0.63651274    -0.20700
C488        C  0.09444011  0.56392481  0.63681376    -0.20700
C489        C  0.06197389  0.71290612  0.76850811    -0.21700
C490        C  0.06229831  0.71276799  0.72952800    -0.21700
C491        C  0.21478367  0.55737583  0.76936844    -0.21700
C492        C  0.21458268  0.55670041  0.73043833    -0.21700
C493        C  0.05959363  0.65124988  0.81694778    -0.17100
C494        C  0.15278675  0.55618512  0.81692160    -0.17100
C495        C  0.15229072  0.55433154  0.68265243    -0.17100
C496        C  0.06020353  0.65057566  0.68165699    -0.17100
H497        H  0.04667279  0.59530210  0.88608581     0.15800
H498        H  0.09675760  0.54373284  0.88596617     0.15800
H499        H  0.04664625  0.59347033  0.61290526     0.15800
H500        H  0.09675163  0.54185946  0.61345248     0.15800
H501        H  0.05707648  0.73958918  0.78642519     0.14100
H502        H  0.05761514  0.73929869  0.71129102     0.14100
H503        H  0.24075241  0.55167840  0.78756199     0.14100
H504        H  0.24040051  0.55045667  0.71246899     0.14100
H505        H  0.12839525  0.62565854  0.78245068     0.27400
H506        H  0.12836034  0.62474966  0.71652925     0.27400
N507        N  0.49992591  0.89122027  0.80730894    -0.35400
N508        N  0.41984425  0.85284083  0.74977697    -0.55900
N509        N  0.99724195  0.89045462  0.69167304    -0.35400
N510        N  0.07758498  0.93116067  0.74923178    -0.55900
C511        C  0.45787359  0.88166414  0.82790510     0.28200
C512        C  0.04235254  0.92338704  0.82777312     0.28200
C513        C  0.45484595  0.88125121  0.67153861     0.28200
C514        C  0.03935299  0.92217867  0.67086480     0.28200
C515        C  0.39181168  0.82798516  0.78046671     0.36800
C516        C  0.39019739  0.82820273  0.71959121     0.36800
C517        C  0.10692857  0.93507678  0.77947943     0.36800
C518        C  0.10530119  0.93377543  0.71836496     0.36800
C519        C  0.47372501  0.90651865  0.86249545    -0.20700
C520        C  0.02702314  0.93285271  0.86240570    -0.19900
C521        C  0.47018911  0.90590117  0.63688416    -0.20700
C522        C  0.02350589  0.93174933  0.63644922    -0.20700
C523        C  0.34448753  0.78614231  0.76987868    -0.21700
C524        C  0.34346998  0.78628155  0.73095761    -0.21700
C525        C  0.15314638  0.93880778  0.76792216    -0.21700
C526        C  0.15212541  0.93799010  0.72894963    -0.21700
C527        C  0.40580104  0.84819061  0.81710617    -0.17100
C528        C  0.09424679  0.94148841  0.81666898    -0.17100
C529        C  0.09134804  0.93971480  0.68144248    -0.17100
C530        C  0.40286560  0.84826830  0.68283734    -0.17100
H531        H  0.44964125  0.90423535  0.88608055     0.15800
H532        H  0.05141420  0.95463401  0.88585831     0.15800
H533        H  0.44569164  0.90376410  0.61363050     0.15800
H534        H  0.04750762  0.95325899  0.61276515     0.15800
H535        H  0.31304311  0.76023677  0.78826292     0.14100
H536        H  0.31117794  0.76044277  0.71318173     0.14100
H537        H  0.18503533  0.94394932  0.78564565     0.14100
H538        H  0.18318287  0.94254562  0.71052146     0.14100
H539        H  0.99951822  0.87249906  0.78245034     0.27400
H540        H  0.99753568  0.87192973  0.71644624     0.27400
C541        C  0.02988756  0.69832910  0.59123240     0.03500
C542        C  0.47498355  0.67588756  0.59378957     0.03500
C543        C  0.44942579  0.64707902  0.62627588    -0.17000
C544        C  0.47609161  0.63899893  0.65538436     0.03500
C545        C  0.03065411  0.66263616  0.65349919     0.03500
C546        C  0.05672890  0.69208762  0.62168781    -0.17000
H547        H  0.09865310  0.70951403  0.62043233     0.05500
H548        H  0.40734713  0.62720955  0.62795649     0.05500
C549        C  0.20090833  0.52480932  0.59328044     0.03500
C550        C  0.16859806  0.96998335  0.59079727     0.03500
C551        C  0.13597915  0.94316008  0.62142384    -0.17000
C552        C  0.13273178  0.96920802  0.65322979     0.03500
C553        C  0.16331916  0.52366230  0.65498450     0.03500
C554        C  0.19775990  0.55031270  0.62578226    -0.17000
H555        H  0.21976167  0.59232365  0.62742356     0.05500
H556        H  0.11166331  0.90128436  0.62029170     0.05500
C557        C  0.30249629  0.82943148  0.90779714     0.03500
C558        C  0.32936004  0.80112831  0.90736872     0.03500
C559        C  0.35933223  0.80518891  0.87545630    -0.17000
C560        C  0.36459434  0.83714977  0.84504264     0.03500
C561        C  0.33774801  0.86494917  0.84513954     0.03500
C562        C  0.30671688  0.86018145  0.87617756    -0.17000
H563        H  0.28745304  0.88297574  0.87634038     0.05500
H564        H  0.38146368  0.78521917  0.87492220     0.05500
C565        C  0.32398538  0.79929713  0.59364209     0.03500
C566        C  0.30124503  0.83142865  0.59124469     0.03500
C567        C  0.30718626  0.86410679  0.62186230    -0.17000
C568        C  0.33680905  0.86756241  0.65359353     0.03500
C569        C  0.36090460  0.83712749  0.65525235     0.03500
C570        C  0.35300959  0.80267497  0.62602788    -0.17000
H571        H  0.37315032  0.78077075  0.62755453     0.05500
H572        H  0.28949468  0.88831647  0.62076286     0.05500
C573        C  0.17178825  0.97139036  0.90735387     0.03500
C574        C  0.20001771  0.52654706  0.90706885     0.03500
C575        C  0.19594291  0.55253173  0.87522238    -0.17000
C576        C  0.16393109  0.52595823  0.84475381     0.03500
C577        C  0.13616854  0.97132771  0.84472660     0.03500
C578        C  0.14106171  0.94498286  0.87565877    -0.17000
H579        H  0.11830205  0.90294605  0.87571517     0.05500
H580        H  0.21590619  0.59460131  0.87481160     0.05500
C581        C  0.47460133  0.67152203  0.90752314     0.03500
C582        C  0.02982602  0.69870138  0.90767419     0.03500
C583        C  0.05623967  0.69444617  0.87596084    -0.17000
C584        C  0.02976690  0.66311311  0.84510533     0.03500
C585        C  0.47504696  0.63602208  0.84524970     0.03500
C586        C  0.44847665  0.64123609  0.87580258    -0.17000
H587        H  0.40632805  0.61895412  0.87549894     0.05500
H588        H  0.09836297  0.71390417  0.87591489     0.05500
O589        O  0.09977138  0.82269728  0.42413562    -0.77300
C590        C  0.26366533  0.94044021  0.43538697     0.83800
O591        O  0.17105441  0.72432856  0.47018447    -0.78400
O592        O  0.27378473  0.87406970  0.54841785    -0.79900
O593        O  0.12578082  0.89977568  0.54815903    -0.79700
O594        O  0.05268148  0.82853258  0.47040996    -0.78300
Zn595      Zn  0.16660481  0.83340293  0.44449630     1.55700
O596        O  0.21276847  0.94248914  0.54930478    -0.79700
Cd597      Cd  0.10169242  0.83340198  0.51505228     1.59700
Cd598      Cd  0.16622606  0.76833708  0.51490833     1.59600
O599        O  0.05735786  0.77015541  0.54982957    -0.79700
O600        O  0.16650704  0.83327622  0.49779244    -1.90200
Cd601      Cd  0.23161264  0.89796583  0.51488415     1.59900
O602        O  0.09997383  0.72591759  0.54827276    -0.79600
O603        O  0.27589640  0.94692796  0.47025881    -0.78300
C604        C  0.17658106  0.73647254  0.43529527     0.84200
C605        C  0.05946121  0.82323923  0.43551039     0.83900
O606        O  0.22268973  0.90029249  0.42401406    -0.77200
C607        C  0.16936363  0.93710399  0.55981870     0.84700
O608        O  0.17728016  0.77733993  0.42393396    -0.77300
C609        C  0.06275494  0.73215931  0.56022786     0.84800
C610        C  0.26751748  0.83059822  0.56020627     0.85200
O611        O  0.22957124  0.78725122  0.54959997    -0.79800
O612        O  0.17602233  0.89837153  0.92605657    -0.77300
C613        C  0.26684966  0.82751664  0.93768908     0.83800
O614        O  0.05700536  0.72223138  0.97236693    -0.78400
O615        O  0.21747866  0.77298340  0.05210383    -0.79900
O616        O  0.22795158  0.94303084  0.05160978    -0.79700
O617        O  0.16750520  0.94399006  0.97209456    -0.78300
Zn618      Zn  0.16801335  0.83327375  0.94706593     1.55700
O619        O  0.27490490  0.90315046  0.05028033    -0.79700
Cd620      Cd  0.16480214  0.89653533  0.01721108     1.59700
Cd621      Cd  0.10446503  0.76695329  0.01745734     1.59600
O622        O  0.09784820  0.87038817  0.05030194    -0.79700
O623        O  0.16791589  0.83320754  0.00043899    -1.90200
Cd624      Cd  0.23425775  0.83606984  0.01752377     1.59900
O625        O  0.05812693  0.78367244  0.05215315    -0.79600
O626        O  0.27921564  0.83337155  0.97253797    -0.78300
C627        C  0.06359208  0.73445000  0.93749071     0.84200
C628        C  0.17360532  0.93761579  0.93725894     0.83900
O629        O  0.22524281  0.82529989  0.92643439    -0.77200
C630        C  0.26720539  0.93956874  0.06183926     0.84700
O631        O  0.10296518  0.77600586  0.92620455    -0.77300
C632        C  0.06155248  0.82638135  0.06220584     0.84800
C633        C  0.17464211  0.73365074  0.06205134     0.85200
O634        O  0.13060138  0.72601935  0.05020834    -0.79800
N635        N  0.00324708  0.60968111  0.30737760    -0.35400
N636        N  0.42338946  0.56862072  0.24987751    -0.55900
N637        N  0.50157601  0.60829431  0.19177527    -0.35400
N638        N  0.08118470  0.64700686  0.24927117    -0.55900
C639        C  0.46113973  0.57795044  0.32822150     0.28200
C640        C  0.04561912  0.61908315  0.32758066     0.28200
C641        C  0.45913649  0.57607762  0.17135136     0.28200
C642        C  0.04368444  0.61777703  0.17120993     0.28200
C643        C  0.39538967  0.56598752  0.28058648     0.36800
C644        C  0.39431532  0.56470387  0.21948510     0.36800
C645        C  0.11047533  0.67196343  0.27950646     0.36800
C646        C  0.10949888  0.67167845  0.21862417     0.36800
C647        C  0.47696834  0.56854486  0.36268909    -0.20700
C648        C  0.03027607  0.59459115  0.36229932    -0.20700
C649        C  0.47450442  0.56649670  0.13676631    -0.20700
C650        C  0.02784611  0.59276391  0.13669116    -0.20700
C651        C  0.34864889  0.56174780  0.26976665    -0.21700
C652        C  0.34796894  0.56092940  0.23079588    -0.21700
C653        C  0.15726995  0.71387175  0.26820637    -0.21700
C654        C  0.15665110  0.71369841  0.22927880    -0.21700
C655        C  0.40914917  0.56022485  0.31759371    -0.17100
C656        C  0.09757775  0.65209876  0.31629138    -0.17100
C657        C  0.09578008  0.65130535  0.18200832    -0.17100
C658        C  0.40721307  0.55811702  0.18240942    -0.17100
H659        H  0.45294597  0.54696098  0.38634960     0.15800
H660        H  0.05476466  0.59693476  0.38561993     0.15800
H661        H  0.45009600  0.54470079  0.11332562     0.15800
H662        H  0.05198682  0.59489164  0.11318380     0.15800
H663        H  0.31745034  0.55720330  0.28803512     0.14100
H664        H  0.31620373  0.55574073  0.21290926     0.14100
H665        H  0.18935396  0.73991575  0.28605980     0.14100
H666        H  0.18821896  0.73955439  0.21096262     0.14100
H667        H  0.50305048  0.62809420  0.28253064     0.27400
H668        H  0.50186800  0.62705638  0.21656526     0.27400
N669        N  0.39059370  0.89367895  0.30746856    -0.35400
N670        N  0.35318868  0.93374644  0.24940054    -0.55900
N671        N  0.39194173  0.89248835  0.19179803    -0.35400
N672        N  0.43190402  0.85474806  0.24988137    -0.55900
C673        C  0.38119619  0.92660671  0.32768607     0.28200
C674        C  0.42226914  0.88328069  0.32831300     0.28200
C675        C  0.38224747  0.92485643  0.17122359     0.28200
C676        C  0.42424722  0.88238357  0.17132826     0.28200
C677        C  0.32832781  0.93842218  0.27959290     0.36800
C678        C  0.32834699  0.93693977  0.21870917     0.36800
C679        C  0.43435062  0.82950254  0.28068701     0.36800
C680        C  0.43599987  0.82955943  0.21957817     0.36800
C681        C  0.40566378  0.93572114  0.36241672    -0.20700
C682        C  0.43161491  0.90842772  0.36281642    -0.20700
C683        C  0.40716602  0.93393661  0.13663294    -0.20700
C684        C  0.43366962  0.90715713  0.13670677    -0.20700
C685        C  0.28631019  0.94308546  0.26822931    -0.21700
C686        C  0.28631756  0.94214758  0.22930493    -0.21700
C687        C  0.43867297  0.78707335  0.27000743    -0.21700
C688        C  0.43972101  0.78711646  0.23104220    -0.21700
C689        C  0.34823371  0.94558110  0.31639077    -0.17100
C690        C  0.43999153  0.84907019  0.31768135    -0.17100
C691        C  0.44252104  0.84876139  0.18241986    -0.17100
C692        C  0.34867163  0.94334218  0.18207027    -0.17100
H693        H  0.40338025  0.95788379  0.38572665     0.15800
H694        H  0.45309228  0.90591214  0.38651282     0.15800
H695        H  0.40485494  0.95572376  0.11308285     0.15800
H696        H  0.45557801  0.90467422  0.11327410     0.15800
H697        H  0.26027754  0.94924077  0.28602045     0.14100
H698        H  0.26034707  0.94759001  0.21093024     0.14100
H699        H  0.44311517  0.76051242  0.28837799     0.14100
H700        H  0.44496163  0.76052795  0.21326463     0.14100
H701        H  0.37223968  0.87506445  0.28257455     0.27400
H702        H  0.37325234  0.87418227  0.21668956     0.27400
C703        C  0.33151701  0.53005260  0.40815804     0.03500
C704        C  0.29929328  0.97519281  0.40570679     0.03500
C705        C  0.30261501  0.94964356  0.37326771    -0.17000
C706        C  0.33707918  0.97626412  0.34403270     0.03500
C707        C  0.36767151  0.53073786  0.34579065     0.03500
C708        C  0.36431537  0.55681542  0.37757665    -0.17000
H709        H  0.38863374  0.59868796  0.37870938     0.05500
H710        H  0.28065614  0.90762704  0.37169190     0.05500
N711        N  0.10859947  0.49884979  0.19192082    -0.35400
N712        N  0.06705687  0.91925418  0.24954802    -0.55900
N713        N  0.10663513  0.49698467  0.30758307    -0.35400
N714        N  0.14596601  0.57681414  0.24997577    -0.55900
C715        C  0.07616249  0.95676425  0.17135962     0.28200
C716        C  0.11874787  0.54114662  0.17140971     0.28200
C717        C  0.07362316  0.95465956  0.32777607     0.28200
C718        C  0.11682885  0.53902399  0.32835169     0.28200
C719        C  0.06390369  0.89107631  0.21896688     0.36800
C720        C  0.06226359  0.88993375  0.27985951     0.36800
C721        C  0.17145168  0.60589800  0.21966469     0.36800
C722        C  0.17097391  0.60474163  0.28078021     0.36800
C723        C  0.06706055  0.97247505  0.13675333    -0.20700
C724        C  0.09395423  0.52571295  0.13677790    -0.20700
C725        C  0.06426350  0.96998062  0.36243113    -0.20700
C726        C  0.09144575  0.52319770  0.36278694    -0.20700
C727        C  0.05863822  0.84397374  0.22975310    -0.21700
C728        C  0.05759995  0.84325457  0.26868162    -0.21700
C729        C  0.21386409  0.65217105  0.23113034    -0.21700
C730        C  0.21357194  0.65143770  0.27010318    -0.21700
C731        C  0.05759831  0.90479076  0.18225062    -0.17100
C732        C  0.15240463  0.59302290  0.18247707    -0.17100
C733        C  0.15110015  0.59095483  0.31772380    -0.17100
C734        C  0.05482031  0.90276833  0.31655950    -0.17100
H735        H  0.04512899  0.94831200  0.11325215     0.15800
H736        H  0.09646485  0.55002477  0.11331754     0.15800
H737        H  0.04206658  0.94554122  0.38574659     0.15800
H738        H  0.09377982  0.54715830  0.38642918     0.15800
H739        H  0.05319561  0.81249528  0.21150080     0.14100
H740        H  0.05132271  0.81118553  0.28659238     0.14100
H741        H  0.24062550  0.68390465  0.21333116     0.14100
H742        H  0.24002138  0.68256808  0.28845841     0.14100
H743        H  0.12693569  0.49861680  0.21684555     0.27400
H744        H  0.12544314  0.49724420  0.28277633     0.27400
C745        C  0.32884639  0.52843011  0.09244448     0.03500
C746        C  0.30072334  0.97325168  0.09260643     0.03500
C747        C  0.30513301  0.94699719  0.12397523    -0.17000
C748        C  0.33758100  0.97359874  0.15426869     0.03500
C749        C  0.36532644  0.52833366  0.15438858     0.03500
C750        C  0.36006642  0.55489589  0.12374303    -0.17000
H751        H  0.38238737  0.59695392  0.12369766     0.05500
H752        H  0.28470116  0.90490945  0.12423013     0.05500
C753        C  0.19821292  0.66854349  0.40823987     0.03500
C754        C  0.17577765  0.70091904  0.40562230     0.03500
C755        C  0.14716862  0.69775163  0.37306511    -0.17000
C756        C  0.13935253  0.66321065  0.34393893     0.03500
C757        C  0.16298265  0.63238731  0.34589304     0.03500
C758        C  0.19223803  0.63568027  0.37776177    -0.17000
H759        H  0.20971084  0.61128276  0.37903303     0.05500
H760        H  0.12722750  0.71983528  0.37132572     0.05500
C761        C  0.20158745  0.67172649  0.09258403     0.03500
C762        C  0.17445833  0.69982366  0.09274050     0.03500
C763        C  0.14329693  0.69499243  0.12396251    -0.17000
C764        C  0.13728697  0.66243309  0.15421755     0.03500
C765        C  0.16447564  0.63483625  0.15440087     0.03500
C766        C  0.19657432  0.64029480  0.12380952    -0.17000
H767        H  0.21639760  0.61803591  0.12376309     0.05500
H768        H  0.12151143  0.71532181  0.12417214     0.05500
C769        C  0.02483513  0.82424391  0.40581918     0.03500
C770        C  0.46991553  0.80160621  0.40822568     0.03500
C771        C  0.44317822  0.80765114  0.37765148    -0.17000
C772        C  0.46941021  0.83712473  0.34591329     0.03500
C773        C  0.02397656  0.86100160  0.34419413     0.03500
C774        C  0.05054997  0.85316639  0.37343245    -0.17000
H775        H  0.09264789  0.87323300  0.37188958     0.05500
H776        H  0.40122942  0.79008438  0.37875246     0.05500
C777        C  0.02780862  0.82640529  0.09296296     0.03500
C778        C  0.47252607  0.79946350  0.09268183     0.03500
C779        C  0.44592011  0.80467651  0.12375748    -0.17000
C780        C  0.47243029  0.83663915  0.15440463     0.03500
C781        C  0.02729109  0.86339071  0.15445450     0.03500
C782        C  0.05402203  0.85731087  0.12428652    -0.17000
H783        H  0.09618828  0.87891956  0.12460642     0.05500
H784        H  0.40379362  0.78504909  0.12357005     0.05500
O785        O  0.90071382  0.17505879  0.92560049    -0.77300
C786        C  0.73596808  0.06084662  0.93674765     0.83800
O787        O  0.83310142  0.27698400  0.97187618    -0.78400
O788        O  0.72743679  0.12805767  0.04963257    -0.79900
O789        O  0.87285058  0.09805884  0.04971695    -0.79700
O790        O  0.94675138  0.16790406  0.97204644    -0.78300
Zn791      Zn  0.83468331  0.16651180  0.94595426     1.55700
O792        O  0.78592998  0.05747719  0.05108698    -0.79700
Cd793      Cd  0.89837107  0.16452707  0.01663486     1.59700
Cd794      Cd  0.83661129  0.23222546  0.01649224     1.59600
O795        O  0.94359381  0.22725215  0.05152678    -0.79700
O796        O  0.83458835  0.16650661  0.99929717    -1.90200
Cd797      Cd  0.76859646  0.10281415  0.01634676     1.59900
O798        O  0.90302584  0.27346019  0.04967637    -0.79600
O799        O  0.72384151  0.05451466  0.97163634    -0.78300
C800        C  0.82767573  0.26512282  0.93695438     0.84200
C801        C  0.94037793  0.17341392  0.93712376     0.83900
O802        O  0.77734048  0.10052077  0.92532854    -0.77200
C803        C  0.82884906  0.06162030  0.06149141     0.84700
O804        O  0.82620473  0.22394168  0.92545495    -0.77300
C805        C  0.93940564  0.26601366  0.06173652     0.84800
C806        C  0.73499594  0.17189968  0.06163105     0.85200
O807        O  0.77384920  0.21478549  0.05134824    -0.79800
O808        O  0.90002683  0.17760478  0.57539784    -0.77300
C809        C  0.82304602  0.26371773  0.56391895     0.83800
O810        O  0.72413431  0.05295573  0.52870688    -0.78400
O811        O  0.76987053  0.21287088  0.44979387    -0.79900
O812        O  0.94249508  0.22993890  0.44973170    -0.79700
O813        O  0.94688885  0.17132990  0.52916265    -0.78300
Zn814      Zn  0.83320097  0.16686399  0.55467011     1.55700
O815        O  0.89954690  0.27389081  0.45089387    -0.79700
Cd816      Cd  0.89801316  0.16654509  0.48430806     1.59700
Cd817      Cd  0.76821132  0.10204220  0.48411033     1.59600
O818        O  0.87404913  0.10026479  0.45094368    -0.79700
O819        O  0.83318912  0.16682101  0.50135010    -1.90200
Cd820      Cd  0.83332143  0.23175151  0.48430465     1.59900
O821        O  0.78708464  0.05761408  0.44946657    -0.79600
O822        O  0.82864716  0.27590898  0.52903502    -0.78300
C823        C  0.73637371  0.05959381  0.56357217     0.84200
C824        C  0.94024852  0.17684052  0.56406667     0.83900
O825        O  0.82226637  0.22279932  0.57525191    -0.77200
C826        C  0.93695325  0.26778806  0.43916983     0.84700
O827        O  0.77720050  0.09990506  0.57492562    -0.77300
C828        C  0.83054688  0.06298299  0.43909130     0.84800
C829        C  0.73196696  0.16947854  0.43923845     0.85200
O830        O  0.72587820  0.12603785  0.45092511    -0.79800
N831        N  0.89330382  0.50295294  0.69193956    -0.35400
N832        N  0.85491250  0.42303127  0.74957663    -0.55900
N833        N  0.89363629  0.50084168  0.80759761    -0.35400
N834        N  0.93407385  0.08051087  0.75004301    -0.55900
C835        C  0.88290804  0.46090908  0.67110635     0.28200
C836        C  0.92621668  0.04527389  0.67169307     0.28200
C837        C  0.88357920  0.45852043  0.82802046     0.28200
C838        C  0.92634267  0.04285294  0.82808530     0.28200
C839        C  0.82939516  0.39518025  0.71887775     0.36800
C840        C  0.82993743  0.39388964  0.77999964     0.36800
C841        C  0.93844744  0.10993832  0.71989452     0.36800
C842        C  0.93791170  0.10867986  0.78079834     0.36800
C843        C  0.90803852  0.47672619  0.63657676    -0.20700
C844        C  0.93529595  0.02994930  0.63694242    -0.20700
C845        C  0.90872375  0.47387701  0.86253270    -0.20700
C846        C  0.93572627  0.02707230  0.86256634    -0.20700
C847        C  0.78695961  0.34847904  0.72975327    -0.21700
C848        C  0.78729996  0.34767545  0.76872718    -0.21700
C849        C  0.94349855  0.15666601  0.73137091    -0.21700
C850        C  0.94314167  0.15586346  0.77030332    -0.21700
C851        C  0.84877707  0.40897325  0.68180559    -0.17100
C852        C  0.94530039  0.09717460  0.68301739    -0.17100
C853        C  0.94473653  0.09482462  0.81734053    -0.17100
C854        C  0.84959427  0.40670165  0.81705092    -0.17100
H855        H  0.90557727  0.45274289  0.61290932     0.15800
H856        H  0.95746152  0.05439952  0.61361791     0.15800
H857        H  0.90623977  0.44957956  0.88598585     0.15800
H858        H  0.95773843  0.05113605  0.88607312     0.15800
H859        H  0.76022041  0.31737252  0.71150600     0.14100
H860        H  0.76082153  0.31591730  0.78662790     0.14100
H861        H  0.94961954  0.18882747  0.71362870     0.14100
H862        H  0.94903552  0.18735063  0.78872065     0.14100
H863        H  0.87474724  0.50269476  0.71689234     0.27400
H864        H  0.87497579  0.50116562  0.78286964     0.27400
N865        N  0.60977192  0.10725579  0.80734528    -0.35400
N866        N  0.56927742  0.14510260  0.74938753    -0.55900
N867        N  0.60976923  0.10606356  0.69170834    -0.35400
N868        N  0.64798335  0.06619461  0.74968789    -0.55900
C869        C  0.57768434  0.11747269  0.82791729     0.28200
C870        C  0.61934617  0.07474513  0.82784593     0.28200
C871        C  0.57789077  0.11634370  0.67096896     0.28200
C872        C  0.61912643  0.07314483  0.67147403     0.28200
C873        C  0.56579676  0.17045745  0.77980904     0.36800
C874        C  0.56629857  0.17022484  0.71867421     0.36800
C875        C  0.67290071  0.06265239  0.78021872     0.36800
C876        C  0.67259200  0.06159538  0.71933167     0.36800
C877        C  0.56830608  0.09266050  0.86253474    -0.20700
C878        C  0.59452909  0.06564780  0.86247103    -0.20700
C879        C  0.56833123  0.09107969  0.63651274    -0.20700
C880        C  0.59443990  0.06392470  0.63681380    -0.20700
C881        C  0.56197383  0.21290610  0.76850812    -0.21700
C882        C  0.56229831  0.21276805  0.72952801    -0.21700
C883        C  0.71478366  0.05737584  0.76936838    -0.21700
C884        C  0.71458270  0.05670055  0.73043826    -0.21700
C885        C  0.55959357  0.15124988  0.81694777    -0.17100
C886        C  0.65278664  0.05618502  0.81692158    -0.17100
C887        C  0.65229062  0.05433150  0.68265240    -0.17100
C888        C  0.56020362  0.15057581  0.68165696    -0.17100
H889        H  0.54667278  0.09530220  0.88608580     0.15800
H890        H  0.59675753  0.04373290  0.88596617     0.15800
H891        H  0.54664632  0.09347049  0.61290522     0.15800
H892        H  0.59675143  0.04185936  0.61345252     0.15800
H893        H  0.55707651  0.23958921  0.78642521     0.14100
H894        H  0.55761522  0.23929881  0.71129105     0.14100
H895        H  0.74075247  0.05167842  0.78756186     0.14100
H896        H  0.74040052  0.05045686  0.71246886     0.14100
H897        H  0.62839522  0.12565857  0.78245052     0.27400
H898        H  0.62836040  0.12474971  0.71652924     0.27400
N899        N  0.99992592  0.39122026  0.80730897    -0.35400
N900        N  0.91984433  0.35284085  0.74977700    -0.55900
N901        N  0.49724196  0.39045467  0.69167303    -0.35400
N902        N  0.57758499  0.43116074  0.74923180    -0.55900
C903        C  0.95787361  0.38166415  0.82790509     0.28200
C904        C  0.54235257  0.42338699  0.82777312     0.28200
C905        C  0.95484611  0.38125119  0.67153859     0.28200
C906        C  0.53935298  0.42217879  0.67086482     0.28200
C907        C  0.89181168  0.32798520  0.78046671     0.36800
C908        C  0.89019754  0.32820273  0.71959120     0.36800
C909        C  0.60692860  0.43507678  0.77947944     0.36800
C910        C  0.60530112  0.43377541  0.71836496     0.36800
C911        C  0.97372502  0.40651876  0.86249543    -0.20700
C912        C  0.52702317  0.43285277  0.86240567    -0.19900
C913        C  0.97018926  0.40590122  0.63688417    -0.20700
C914        C  0.52350586  0.43174942  0.63644924    -0.20700
C915        C  0.84448754  0.28614240  0.76987864    -0.21700
C916        C  0.84347010  0.28628159  0.73095757    -0.21700
C917        C  0.65314634  0.43880766  0.76792215    -0.21700
C918        C  0.65212532  0.43799007  0.72894962    -0.21700
C919        C  0.90580106  0.34819052  0.81710622    -0.17100
C920        C  0.59424683  0.44148834  0.81666902    -0.17100
C921        C  0.59134801  0.43971488  0.68144248    -0.17100
C922        C  0.90286575  0.34826834  0.68283732    -0.17100
H923        H  0.94964132  0.40423541  0.88608057     0.15800
H924        H  0.55141423  0.45463399  0.88585830     0.15800
H925        H  0.94569181  0.40376426  0.61363053     0.15800
H926        H  0.54750758  0.45325905  0.61276516     0.15800
H927        H  0.81304307  0.26023681  0.78826285     0.14100
H928        H  0.81117813  0.26044276  0.71318165     0.14100
H929        H  0.68503526  0.44394904  0.78564561     0.14100
H930        H  0.68318280  0.44254572  0.71052141     0.14100
H931        H  0.49951830  0.37249883  0.78245028     0.27400
H932        H  0.49753570  0.37192983  0.71644625     0.27400
C933        C  0.52988753  0.19832918  0.59123240     0.03500
C934        C  0.97498367  0.17588764  0.59378955     0.03500
C935        C  0.94942588  0.14707910  0.62627585    -0.17000
C936        C  0.97609167  0.13899904  0.65538437     0.03500
C937        C  0.53065415  0.16263628  0.65349920     0.03500
C938        C  0.55672889  0.19208773  0.62168780    -0.17000
H939        H  0.59865308  0.20951412  0.62043227     0.05500
H940        H  0.90734723  0.12720962  0.62795642     0.05500
C941        C  0.70090848  0.02480930  0.59328048     0.03500
C942        C  0.66859815  0.46998332  0.59079733     0.03500
C943        C  0.63597916  0.44316010  0.62142387    -0.17000
C944        C  0.63273175  0.46920808  0.65322978     0.03500
C945        C  0.66331911  0.02366228  0.65498448     0.03500
C946        C  0.69776003  0.05031270  0.62578230    -0.17000
H947        H  0.71976186  0.09232363  0.62742362     0.05500
H948        H  0.61166330  0.40128440  0.62029176     0.05500
C949        C  0.80249626  0.32943150  0.90779714     0.03500
C950        C  0.82936005  0.30112838  0.90736875     0.03500
C951        C  0.85933230  0.30518893  0.87545638    -0.17000
C952        C  0.86459440  0.33714972  0.84504269     0.03500
C953        C  0.83774802  0.36494908  0.84513952     0.03500
C954        C  0.80671690  0.36018145  0.87617753    -0.17000
H955        H  0.78745306  0.38297575  0.87634030     0.05500
H956        H  0.88146373  0.28521919  0.87492232     0.05500
C957        C  0.82398549  0.29929719  0.59364207     0.03500
C958        C  0.80124509  0.33142867  0.59124468     0.03500
C959        C  0.80718612  0.36410668  0.62186236    -0.17000
C960        C  0.83680900  0.36756238  0.65359356     0.03500
C961        C  0.86090472  0.33712757  0.65525233     0.03500
C962        C  0.85300970  0.30267504  0.62602786    -0.17000
H963        H  0.87315038  0.28077076  0.62755453     0.05500
H964        H  0.78949443  0.38831627  0.62076292     0.05500
C965        C  0.67178825  0.47139038  0.90735394     0.03500
C966        C  0.70001776  0.02654706  0.90706877     0.03500
C967        C  0.69594293  0.05253168  0.87522230    -0.17000
C968        C  0.66393101  0.02595816  0.84475379     0.03500
C969        C  0.63616859  0.47132772  0.84472662     0.03500
C970        C  0.64106177  0.44498291  0.87565882    -0.17000
H971        H  0.61830215  0.40294610  0.87571522     0.05500
H972        H  0.71590624  0.09460127  0.87481146     0.05500
C973        C  0.97460134  0.17152198  0.90752320     0.03500
C974        C  0.52982611  0.19870141  0.90767420     0.03500
C975        C  0.55623973  0.19444618  0.87596084    -0.17000
C976        C  0.52976692  0.16311314  0.84510535     0.03500
C977        C  0.97504696  0.13602215  0.84524972     0.03500
C978        C  0.94847663  0.14123607  0.87580264    -0.17000
H979        H  0.90632804  0.11895411  0.87549900     0.05500
H980        H  0.59836304  0.21390420  0.87591485     0.05500
O981        O  0.59977147  0.32269731  0.42413559    -0.77300
C982        C  0.76366534  0.44044021  0.43538696     0.83800
O983        O  0.67105434  0.22432861  0.47018444    -0.78400
O984        O  0.77378474  0.37406967  0.54841788    -0.79900
O985        O  0.62578079  0.39977572  0.54815902    -0.79700
O986        O  0.55268167  0.32853263  0.47040996    -0.78300
Zn987      Zn  0.66660482  0.33340304  0.44449632     1.55700
O988        O  0.71276844  0.44248897  0.54930481    -0.79700
Cd989      Cd  0.60169259  0.33340208  0.51505229     1.59700
Cd990      Cd  0.66622597  0.26833698  0.51490834     1.59600
O991        O  0.55735785  0.27015548  0.54982955    -0.79700
O992        O  0.66650715  0.33327627  0.49779246    -1.90200
Cd993      Cd  0.73161279  0.39796587  0.51488414     1.59900
O994        O  0.59997374  0.22591757  0.54827277    -0.79600
O995        O  0.77589644  0.44692801  0.47025880    -0.78300
C996        C  0.67658102  0.23647263  0.43529526     0.84200
C997        C  0.55946131  0.32323923  0.43551038     0.83900
O998        O  0.72268972  0.40029251  0.42401406    -0.77200
C999        C  0.66936364  0.43710392  0.55981873     0.84700
O1000       O  0.67728013  0.27734004  0.42393395    -0.77300
C1001       C  0.56275488  0.23215935  0.56022785     0.84800
C1002       C  0.76751755  0.33059819  0.56020625     0.85200
O1003       O  0.72957136  0.28725117  0.54959990    -0.79800
O1004       O  0.67602248  0.39837154  0.92605657    -0.77300
C1005       C  0.76684954  0.32751657  0.93768907     0.83800
O1006       O  0.55700553  0.22223147  0.97236691    -0.78400
O1007       O  0.71747863  0.27298351  0.05210384    -0.79900
O1008       O  0.72795161  0.44303094  0.05160978    -0.79700
O1009       O  0.66750518  0.44398994  0.97209461    -0.78300
Zn1010     Zn  0.66801327  0.33327364  0.94706594     1.55700
O1011       O  0.77490491  0.40315054  0.05028031    -0.79700
Cd1012     Cd  0.66480215  0.39653538  0.01721111     1.59700
Cd1013     Cd  0.60446502  0.26695339  0.01745735     1.59600
O1014       O  0.59784825  0.37038808  0.05030199    -0.79700
O1015       O  0.66791585  0.33320762  0.00043900    -1.90200
Cd1016     Cd  0.73425771  0.33606994  0.01752376     1.59900
O1017       O  0.55812676  0.28367234  0.05215313    -0.79600
O1018       O  0.77921557  0.33337164  0.97253795    -0.78300
C1019       C  0.56359221  0.23445006  0.93749069     0.84200
C1020       C  0.67360539  0.43761576  0.93725898     0.83900
O1021       O  0.72524260  0.32529961  0.92643438    -0.77200
C1022       C  0.76720540  0.43956880  0.06183926     0.84700
O1023       O  0.60296526  0.27600591  0.92620451    -0.77300
C1024       C  0.56155243  0.32638128  0.06220585     0.84800
C1025       C  0.67464208  0.23365084  0.06205135     0.85200
O1026       O  0.63060136  0.22601947  0.05020835    -0.79800
N1027       N  0.50324703  0.10968122  0.30737762    -0.35400
N1028       N  0.92338943  0.06862058  0.24987743    -0.55900
N1029       N  0.00157601  0.10829423  0.19177531    -0.35400
N1030       N  0.58118469  0.14700694  0.24927115    -0.55900
C1031       C  0.96113972  0.07795050  0.32822151     0.28200
C1032       C  0.54561908  0.11908320  0.32758067     0.28200
C1033       C  0.95913648  0.07607761  0.17135135     0.28200
C1034       C  0.54368440  0.11777705  0.17120995     0.28200
C1035       C  0.89538972  0.06598748  0.28058643     0.36800
C1036       C  0.89431531  0.06470392  0.21948505     0.36800
C1037       C  0.61047537  0.17196341  0.27950644     0.36800
C1038       C  0.60949886  0.17167853  0.21862417     0.36800
C1039       C  0.97696830  0.06854491  0.36268910    -0.20700
C1040       C  0.53027602  0.09459107  0.36229930    -0.20700
C1041       C  0.97450443  0.06649676  0.13676627    -0.20700
C1042       C  0.52784613  0.09276396  0.13669117    -0.20700
C1043       C  0.84864901  0.06174791  0.26976666    -0.21700
C1044       C  0.84796897  0.06092955  0.23079588    -0.21700
C1045       C  0.65726996  0.21387174  0.26820638    -0.21700
C1046       C  0.65665112  0.21369840  0.22927882    -0.21700
C1047       C  0.90914917  0.06022474  0.31759365    -0.17100
C1048       C  0.59757772  0.15209879  0.31629138    -0.17100
C1049       C  0.59578005  0.15130542  0.18200832    -0.17100
C1050       C  0.90721306  0.05811708  0.18240937    -0.17100
H1051       H  0.95294590  0.04696099  0.38634959     0.15800
H1052       H  0.55476462  0.09693450  0.38561986     0.15800
H1053       H  0.95009607  0.04470089  0.11332557     0.15800
H1054       H  0.55198691  0.09489174  0.11318384     0.15800
H1055       H  0.81745054  0.05720344  0.28803520     0.14100
H1056       H  0.81620372  0.05574092  0.21290935     0.14100
H1057       H  0.68935395  0.23991583  0.28605981     0.14100
H1058       H  0.68821907  0.23955436  0.21096270     0.14100
H1059       H  0.00305044  0.12809425  0.28253067     0.27400
H1060       H  0.00186802  0.12705623  0.21656529     0.27400
N1061       N  0.89059371  0.39367898  0.30746857    -0.35400
N1062       N  0.85318871  0.43374657  0.24940060    -0.55900
N1063       N  0.89194174  0.39248837  0.19179804    -0.35400
N1064       N  0.93190398  0.35474807  0.24988142    -0.55900
C1065       C  0.88119628  0.42660682  0.32768607     0.28200
C1066       C  0.92226905  0.38328061  0.32831303     0.28200
C1067       C  0.88224749  0.42485645  0.17122358     0.28200
C1068       C  0.92424710  0.38238344  0.17132826     0.28200
C1069       C  0.82832781  0.43842227  0.27959294     0.36800
C1070       C  0.82834704  0.43693990  0.21870921     0.36800
C1071       C  0.93435050  0.32950248  0.28068703     0.36800
C1072       C  0.93599990  0.32955947  0.21957821     0.36800
C1073       C  0.90566386  0.43572118  0.36241671    -0.20700
C1074       C  0.93161484  0.40842763  0.36281641    -0.20700
C1075       C  0.90716598  0.43393652  0.13663288    -0.20700
C1076       C  0.93366944  0.40715689  0.13670672    -0.20700
C1077       C  0.78631016  0.44308553  0.26822931    -0.21700
C1078       C  0.78631759  0.44214770  0.22930491    -0.21700
C1079       C  0.93867280  0.28707327  0.27000741    -0.21700
C1080       C  0.93972095  0.28711648  0.23104220    -0.21700
C1081       C  0.84823376  0.44558121  0.31639079    -0.17100
C1082       C  0.93999149  0.34907016  0.31768137    -0.17100
C1083       C  0.94252110  0.34876142  0.18241991    -0.17100
C1084       C  0.84867168  0.44334222  0.18207030    -0.17100
H1085       H  0.90338042  0.45788384  0.38572665     0.15800
H1086       H  0.95309225  0.40591205  0.38651279     0.15800
H1087       H  0.90485500  0.45572371  0.11308278     0.15800
H1088       H  0.95557786  0.40467391  0.11327410     0.15800
H1089       H  0.76027744  0.44924076  0.28602042     0.14100
H1090       H  0.76034712  0.44759008  0.21093017     0.14100
H1091       H  0.94311500  0.26051229  0.28837790     0.14100
H1092       H  0.94496166  0.26052805  0.21326461     0.14100
H1093       H  0.87223973  0.37506452  0.28257458     0.27400
H1094       H  0.87325240  0.37418242  0.21668970     0.27400
C1095       C  0.83151709  0.03005260  0.40815805     0.03500
C1096       C  0.79929328  0.47519279  0.40570677     0.03500
C1097       C  0.80261496  0.44964358  0.37326765    -0.17000
C1098       C  0.83707922  0.47626419  0.34403271     0.03500
C1099       C  0.86767150  0.03073778  0.34579060     0.03500
C1100       C  0.86431547  0.05681537  0.37757664    -0.17000
H1101       H  0.88863391  0.09868791  0.37870934     0.05500
H1102       H  0.78065605  0.40762707  0.37169179     0.05500
N1103       N  0.60859945  0.99884980  0.19192081    -0.35400
N1104       N  0.56705678  0.41925413  0.24954800    -0.55900
N1105       N  0.60663518  0.99698467  0.30758306    -0.35400
N1106       N  0.64596625  0.07681412  0.24997576    -0.55900
C1107       C  0.57616245  0.45676424  0.17135965     0.28200
C1108       C  0.61874786  0.04114664  0.17140972     0.28200
C1109       C  0.57362318  0.45465959  0.32777603     0.28200
C1110       C  0.61682899  0.03902398  0.32835171     0.28200
C1111       C  0.56390358  0.39107624  0.21896688     0.36800
C1112       C  0.56226367  0.38993378  0.27985952     0.36800
C1113       C  0.67145184  0.10589803  0.21966468     0.36800
C1114       C  0.67097405  0.10474163  0.28078021     0.36800
C1115       C  0.56706047  0.47247504  0.13675333    -0.20700
C1116       C  0.59395417  0.02571297  0.13677793    -0.20700
C1117       C  0.56426344  0.46998064  0.36243110    -0.20700
C1118       C  0.59144594  0.02319768  0.36278695    -0.20700
C1119       C  0.55863814  0.34397367  0.22975312    -0.21700
C1120       C  0.55759996  0.34325455  0.26868164    -0.21700
C1121       C  0.71386415  0.15217117  0.23113034    -0.21700
C1122       C  0.71357195  0.15143779  0.27010319    -0.21700
C1123       C  0.55759831  0.40479074  0.18225060    -0.17100
C1124       C  0.65240471  0.09302292  0.18247707    -0.17100
C1125       C  0.65110017  0.09095484  0.31772378    -0.17100
C1126       C  0.55482033  0.40276834  0.31655949    -0.17100
H1127       H  0.54512892  0.44831200  0.11325215     0.15800
H1128       H  0.59646482  0.05002479  0.11331756     0.15800
H1129       H  0.54206648  0.44554120  0.38574654     0.15800
H1130       H  0.59378006  0.04715829  0.38642920     0.15800
H1131       H  0.55319554  0.31249520  0.21150082     0.14100
H1132       H  0.55132265  0.31118550  0.28659243     0.14100
H1133       H  0.74062551  0.18390483  0.21333117     0.14100
H1134       H  0.74002126  0.18256820  0.28845844     0.14100
H1135       H  0.62693575  0.99861680  0.21684553     0.27400
H1136       H  0.62544312  0.99724420  0.28277633     0.27400
C1137       C  0.82884639  0.02843015  0.09244443     0.03500
C1138       C  0.80072330  0.47325165  0.09260648     0.03500
C1139       C  0.80513291  0.44699711  0.12397528    -0.17000
C1140       C  0.83758099  0.47359869  0.15426871     0.03500
C1141       C  0.86532646  0.02833371  0.15438853     0.03500
C1142       C  0.86006656  0.05489594  0.12374293    -0.17000
H1143       H  0.88238764  0.09695397  0.12369750     0.05500
H1144       H  0.78470101  0.40490938  0.12423018     0.05500
C1145       C  0.69821288  0.16854356  0.40823987     0.03500
C1146       C  0.67577759  0.20091911  0.40562230     0.03500
C1147       C  0.64716846  0.19775162  0.37306515    -0.17000
C1148       C  0.63935245  0.16321067  0.34393894     0.03500
C1149       C  0.66298262  0.13238736  0.34589303     0.03500
C1150       C  0.69223799  0.13568033  0.37776177    -0.17000
H1151       H  0.70971077  0.11128279  0.37903306     0.05500
H1152       H  0.62722726  0.21983520  0.37132579     0.05500
C1153       C  0.70158730  0.17172639  0.09258398     0.03500
C1154       C  0.67445828  0.19982369  0.09274049     0.03500
C1155       C  0.64329690  0.19499246  0.12396253    -0.17000
C1156       C  0.63728690  0.16243308  0.15421755     0.03500
C1157       C  0.66447562  0.13483626  0.15440087     0.03500
C1158       C  0.69657431  0.14029481  0.12380953    -0.17000
H1159       H  0.71639769  0.11803603  0.12376315     0.05500
H1160       H  0.62151146  0.21532191  0.12417220     0.05500
C1161       C  0.52483520  0.32424390  0.40581918     0.03500
C1162       C  0.96991550  0.30160610  0.40822568     0.03500
C1163       C  0.94317822  0.30765115  0.37765151    -0.17000
C1164       C  0.96941022  0.33712474  0.34591331     0.03500
C1165       C  0.52397663  0.36100160  0.34419411     0.03500
C1166       C  0.55055007  0.35316646  0.37343247    -0.17000
H1167       H  0.59264800  0.37323315  0.37188965     0.05500
H1168       H  0.90122944  0.29008446  0.37875250     0.05500
C1169       C  0.52780860  0.32640531  0.09296294     0.03500
C1170       C  0.97252608  0.29946353  0.09268183     0.03500
C1171       C  0.94592011  0.30467650  0.12375750    -0.17000
C1172       C  0.97243031  0.33663909  0.15440467     0.03500
C1173       C  0.52729109  0.36339069  0.15445449     0.03500
C1174       C  0.55402203  0.35731083  0.12428651    -0.17000
H1175       H  0.59618828  0.37891945  0.12460644     0.05500
H1176       H  0.90379362  0.28504915  0.12357005     0.05500
O1177       O  0.90071374  0.67505867  0.92560057    -0.77300
C1178       C  0.73596811  0.56084660  0.93674766     0.83800
O1179       O  0.83310121  0.77698384  0.97187618    -0.78400
O1180       O  0.72743684  0.62805776  0.04963256    -0.79900
O1181       O  0.87285053  0.59805874  0.04971695    -0.79700
O1182       O  0.94675145  0.66790395  0.97204642    -0.78300
Zn1183     Zn  0.83468322  0.66651168  0.94595427     1.55700
O1184       O  0.78592994  0.55747703  0.05108703    -0.79700
Cd1185     Cd  0.89837112  0.66452695  0.01663484     1.59700
Cd1186     Cd  0.83661115  0.73222535  0.01649223     1.59600
O1187       O  0.94359370  0.72725204  0.05152678    -0.79700
O1188       O  0.83458834  0.66650651  0.99929718    -1.90200
Cd1189     Cd  0.76859652  0.60281406  0.01634679     1.59900
O1190       O  0.90302573  0.77346009  0.04967640    -0.79600
O1191       O  0.72384162  0.55451461  0.97163636    -0.78300
C1192       C  0.82767568  0.76512272  0.93695437     0.84200
C1193       C  0.94037790  0.67341385  0.93712376     0.83900
O1194       O  0.77734052  0.60052071  0.92532852    -0.77200
C1195       C  0.82884904  0.56162020  0.06149144     0.84700
O1196       O  0.82620480  0.72394163  0.92545495    -0.77300
C1197       C  0.93940555  0.76601355  0.06173653     0.84800
C1198       C  0.73499597  0.67189976  0.06163106     0.85200
O1199       O  0.77384920  0.71478559  0.05134825    -0.79800
O1200       O  0.90002676  0.67760464  0.57539778    -0.77300
C1201       C  0.82304596  0.76371774  0.56391896     0.83800
O1202       O  0.72413416  0.55295580  0.52870687    -0.78400
O1203       O  0.76987056  0.71287090  0.44979381    -0.79900
O1204       O  0.94249514  0.72993908  0.44973170    -0.79700
O1205       O  0.94688893  0.67132983  0.52916266    -0.78300
Zn1206     Zn  0.83320083  0.66686389  0.55467010     1.55700
O1207       O  0.89954693  0.77389098  0.45089388    -0.79700
Cd1208     Cd  0.89801333  0.66654523  0.48430806     1.59700
Cd1209     Cd  0.76821125  0.60204215  0.48411033     1.59600
O1210       O  0.87404909  0.60026480  0.45094368    -0.79700
O1211       O  0.83318910  0.66682102  0.50135007    -1.90200
Cd1212     Cd  0.83332145  0.73175167  0.48430465     1.59900
O1213       O  0.78708457  0.55761402  0.44946658    -0.79600
O1214       O  0.82864719  0.77590910  0.52903505    -0.78300
C1215       C  0.73637360  0.55959380  0.56357215     0.84200
C1216       C  0.94024848  0.67684040  0.56406667     0.83900
O1217       O  0.82226625  0.72279927  0.57525186    -0.77200
C1218       C  0.93695328  0.76778823  0.43916984     0.84700
O1219       O  0.77720042  0.59990500  0.57492563    -0.77300
C1220       C  0.83054682  0.56298296  0.43909131     0.84800
C1221       C  0.73196698  0.66947853  0.43923843     0.85200
O1222       O  0.72587828  0.62603787  0.45092509    -0.79800
N1223       N  0.89330370  0.00295295  0.69193954    -0.35400
N1224       N  0.85491254  0.92303132  0.74957662    -0.55900
N1225       N  0.89363644  0.00084184  0.80759759    -0.35400
N1226       N  0.93407388  0.58051079  0.75004300    -0.55900
C1227       C  0.88290794  0.96090908  0.67110634     0.28200
C1228       C  0.92621666  0.54527386  0.67169305     0.28200
C1229       C  0.88357921  0.95852058  0.82802049     0.28200
C1230       C  0.92634255  0.54285279  0.82808529     0.28200
C1231       C  0.82939518  0.89518026  0.71887776     0.36800
C1232       C  0.82993746  0.89388973  0.77999966     0.36800
C1233       C  0.93844744  0.60993826  0.71989450     0.36800
C1234       C  0.93791157  0.60867970  0.78079832     0.36800
C1235       C  0.90803849  0.97672620  0.63657678    -0.20700
C1236       C  0.93529589  0.52994930  0.63694236    -0.20700
C1237       C  0.90872370  0.97387714  0.86253276    -0.20700
C1238       C  0.93572628  0.52707216  0.86256628    -0.20700
C1239       C  0.78695962  0.84847905  0.72975331    -0.21700
C1240       C  0.78730004  0.84767547  0.76872722    -0.21700
C1241       C  0.94349857  0.65666597  0.73137088    -0.21700
C1242       C  0.94314156  0.65586332  0.77030330    -0.21700
C1243       C  0.84877707  0.90897325  0.68180559    -0.17100
C1244       C  0.94530034  0.59717455  0.68301737    -0.17100
C1245       C  0.94473639  0.59482449  0.81734052    -0.17100
C1246       C  0.84959427  0.90670179  0.81705094    -0.17100
H1247       H  0.90557734  0.95274296  0.61290934     0.15800
H1248       H  0.95746133  0.55439957  0.61361783     0.15800
H1249       H  0.90623973  0.94957969  0.88598590     0.15800
H1250       H  0.95773848  0.55113592  0.88607304     0.15800
H1251       H  0.76022035  0.81737253  0.71150606     0.14100
H1252       H  0.76082169  0.81591732  0.78662795     0.14100
H1253       H  0.94961970  0.68882747  0.71362867     0.14100
H1254       H  0.94903539  0.68735047  0.78872065     0.14100
H1255       H  0.87474708  0.00269480  0.71689229     0.27400
H1256       H  0.87497602  0.00116580  0.78286960     0.27400
N1257       N  0.60977195  0.60725577  0.80734529    -0.35400
N1258       N  0.56927757  0.64510266  0.74938753    -0.55900
N1259       N  0.60976924  0.60606356  0.69170835    -0.35400
N1260       N  0.64798343  0.56619480  0.74968791    -0.55900
C1261       C  0.57768429  0.61747259  0.82791727     0.28200
C1262       C  0.61934619  0.57474509  0.82784596     0.28200
C1263       C  0.57789071  0.61634359  0.67096897     0.28200
C1264       C  0.61912659  0.57314493  0.67147401     0.28200
C1265       C  0.56579701  0.67045758  0.77980906     0.36800
C1266       C  0.56629857  0.67022481  0.71867421     0.36800
C1267       C  0.67290082  0.56265257  0.78021874     0.36800
C1268       C  0.67259195  0.56159533  0.71933170     0.36800
C1269       C  0.56830596  0.59266035  0.86253468    -0.20700
C1270       C  0.59452899  0.56564765  0.86247101    -0.20700
C1271       C  0.56833131  0.59107965  0.63651273    -0.20700
C1272       C  0.59444014  0.56392482  0.63681374    -0.20700
C1273       C  0.56197393  0.71290616  0.76850814    -0.21700
C1274       C  0.56229824  0.71276797  0.72952801    -0.21700
C1275       C  0.71478366  0.55737582  0.76936838    -0.21700
C1276       C  0.71458258  0.55670041  0.73043827    -0.21700
C1277       C  0.55959369  0.65124992  0.81694778    -0.17100
C1278       C  0.65278677  0.55618513  0.81692160    -0.17100
C1279       C  0.65229069  0.55433153  0.68265242    -0.17100
C1280       C  0.56020352  0.65057567  0.68165697    -0.17100
H1281       H  0.54667269  0.59530214  0.88608573     0.15800
H1282       H  0.59675745  0.54373277  0.88596617     0.15800
H1283       H  0.54664637  0.59347041  0.61290521     0.15800
H1284       H  0.59675173  0.54185952  0.61345247     0.15800
H1285       H  0.55707652  0.73958920  0.78642523     0.14100
H1286       H  0.55761489  0.73929857  0.71129105     0.14100
H1287       H  0.74075245  0.55167837  0.78756186     0.14100
H1288       H  0.74040035  0.55045669  0.71246885     0.14100
H1289       H  0.62839531  0.62565862  0.78245070     0.27400
H1290       H  0.62836032  0.62474974  0.71652924     0.27400
N1291       N  0.99992587  0.89122025  0.80730894    -0.35400
N1292       N  0.91984418  0.85284089  0.74977698    -0.55900
N1293       N  0.49724188  0.89045462  0.69167303    -0.35400
N1294       N  0.57758496  0.93116066  0.74923181    -0.55900
C1295       C  0.95787356  0.88166413  0.82790510     0.28200
C1296       C  0.54235259  0.92338703  0.82777314     0.28200
C1297       C  0.95484602  0.88125120  0.67153859     0.28200
C1298       C  0.53935288  0.92217867  0.67086479     0.28200
C1299       C  0.89181158  0.82798522  0.78046670     0.36800
C1300       C  0.89019741  0.82820270  0.71959119     0.36800
C1301       C  0.60692861  0.93507676  0.77947943     0.36800
C1302       C  0.60530112  0.93377544  0.71836496     0.36800
C1303       C  0.97372496  0.90651863  0.86249545    -0.20700
C1304       C  0.52702318  0.93285269  0.86240571    -0.19900
C1305       C  0.97018921  0.90590118  0.63688414    -0.20700
C1306       C  0.52350578  0.93174934  0.63644921    -0.20700
C1307       C  0.84448746  0.78614235  0.76987864    -0.21700
C1308       C  0.84347000  0.78628152  0.73095758    -0.21700
C1309       C  0.65314641  0.93880777  0.76792211    -0.21700
C1310       C  0.65212535  0.93799012  0.72894958    -0.21700
C1311       C  0.90580101  0.84819057  0.81710619    -0.17100
C1312       C  0.59424683  0.94148836  0.81666898    -0.17100
C1313       C  0.59134792  0.93971481  0.68144248    -0.17100
C1314       C  0.90286564  0.84826830  0.68283732    -0.17100
H1315       H  0.94964118  0.90423525  0.88608056     0.15800
H1316       H  0.55141423  0.95463397  0.88585832     0.15800
H1317       H  0.94569176  0.90376417  0.61363048     0.15800
H1318       H  0.54750749  0.95325899  0.61276513     0.15800
H1319       H  0.81304300  0.76023676  0.78826286     0.14100
H1320       H  0.81117803  0.76044266  0.71318167     0.14100
H1321       H  0.68503541  0.94394931  0.78564555     0.14100
H1322       H  0.68318276  0.94254564  0.71052135     0.14100
H1323       H  0.49951829  0.87249914  0.78245034     0.27400
H1324       H  0.49753566  0.87192975  0.71644622     0.27400
C1325       C  0.52988750  0.69832907  0.59123239     0.03500
C1326       C  0.97498362  0.67588756  0.59378956     0.03500
C1327       C  0.94942584  0.64707903  0.62627587    -0.17000
C1328       C  0.97609162  0.63899896  0.65538436     0.03500
C1329       C  0.53065409  0.66263617  0.65349918     0.03500
C1330       C  0.55672885  0.69208759  0.62168779    -0.17000
H1331       H  0.59865305  0.70951396  0.62043231     0.05500
H1332       H  0.90734719  0.62720956  0.62795646     0.05500
C1333       C  0.70090840  0.52480928  0.59328044     0.03500
C1334       C  0.66859807  0.96998334  0.59079730     0.03500
C1335       C  0.63597903  0.94316008  0.62142382    -0.17000
C1336       C  0.63273162  0.96920803  0.65322975     0.03500
C1337       C  0.66331920  0.52366230  0.65498449     0.03500
C1338       C  0.69775997  0.55031269  0.62578225    -0.17000
H1339       H  0.71976171  0.59232364  0.62742350     0.05500
H1340       H  0.61166316  0.90128438  0.62029168     0.05500
C1341       C  0.80249621  0.82943145  0.90779712     0.03500
C1342       C  0.82935999  0.80112829  0.90736873     0.03500
C1343       C  0.85933221  0.80518885  0.87545632    -0.17000
C1344       C  0.86459435  0.83714975  0.84504267     0.03500
C1345       C  0.83774805  0.86494919  0.84513955     0.03500
C1346       C  0.80671689  0.86018148  0.87617755    -0.17000
H1347       H  0.78745308  0.88297581  0.87634035     0.05500
H1348       H  0.88146361  0.78521906  0.87492221     0.05500
C1349       C  0.82398533  0.79929711  0.59364210     0.03500
C1350       C  0.80124499  0.83142865  0.59124470     0.03500
C1351       C  0.80718616  0.86410673  0.62186234    -0.17000
C1352       C  0.83680899  0.86756239  0.65359355     0.03500
C1353       C  0.86090462  0.83712752  0.65525234     0.03500
C1354       C  0.85300956  0.80267493  0.62602789    -0.17000
H1355       H  0.87315024  0.78077067  0.62755454     0.05500
H1356       H  0.78949457  0.88831642  0.62076287     0.05500
C1357       C  0.67178830  0.97139037  0.90735384     0.03500
C1358       C  0.70001775  0.52654708  0.90706883     0.03500
C1359       C  0.69594306  0.55253173  0.87522229    -0.17000
C1360       C  0.66393113  0.52595821  0.84475379     0.03500
C1361       C  0.63616858  0.97132769  0.84472657     0.03500
C1362       C  0.64106179  0.94498286  0.87565875    -0.17000
H1363       H  0.61830211  0.90294605  0.87571518     0.05500
H1364       H  0.71590645  0.59460131  0.87481145     0.05500
C1365       C  0.97460127  0.67152201  0.90752315     0.03500
C1366       C  0.52982608  0.69870137  0.90767420     0.03500
C1367       C  0.55623974  0.69444617  0.87596085    -0.17000
C1368       C  0.52976698  0.66311314  0.84510533     0.03500
C1369       C  0.97504687  0.63602209  0.84524969     0.03500
C1370       C  0.94847658  0.64123605  0.87580261    -0.17000
H1371       H  0.90632798  0.61895404  0.87549902     0.05500
H1372       H  0.59836303  0.71390416  0.87591492     0.05500
O1373       O  0.59977136  0.82269728  0.42413559    -0.77300
C1374       C  0.76366542  0.94044020  0.43538698     0.83800
O1375       O  0.67105444  0.72432857  0.47018447    -0.78400
O1376       O  0.77378464  0.87406968  0.54841790    -0.79900
O1377       O  0.62578084  0.89977565  0.54815906    -0.79700
O1378       O  0.55268153  0.82853259  0.47040997    -0.78300
Zn1379     Zn  0.66660473  0.83340294  0.44449630     1.55700
O1380       O  0.71276849  0.94248918  0.54930474    -0.79700
Cd1381     Cd  0.60169245  0.83340197  0.51505229     1.59700
Cd1382     Cd  0.66622613  0.76833709  0.51490833     1.59600
O1383       O  0.55735775  0.77015537  0.54982955    -0.79700
O1384       O  0.66650702  0.83327621  0.49779244    -1.90200
Cd1385     Cd  0.73161267  0.89796583  0.51488414     1.59900
O1386       O  0.59997384  0.72591765  0.54827278    -0.79600
O1387       O  0.77589651  0.94692795  0.47025882    -0.78300
C1388       C  0.67658101  0.73647254  0.43529528     0.84200
C1389       C  0.55946122  0.82323924  0.43551038     0.83900
O1390       O  0.72268980  0.90029249  0.42401408    -0.77200
C1391       C  0.66936365  0.93710398  0.55981871     0.84700
O1392       O  0.67728014  0.77733996  0.42393398    -0.77300
C1393       C  0.56275489  0.73215931  0.56022785     0.84800
C1394       C  0.76751747  0.83059822  0.56020628     0.85200
O1395       O  0.72957132  0.78725120  0.54959992    -0.79800
O1396       O  0.67602236  0.89837153  0.92605658    -0.77300
C1397       C  0.76684954  0.82751664  0.93768904     0.83800
O1398       O  0.55700547  0.72223137  0.97236693    -0.78400
O1399       O  0.71747868  0.77298337  0.05210385    -0.79900
O1400       O  0.72795154  0.94303085  0.05160974    -0.79700
O1401       O  0.66750521  0.94399008  0.97209455    -0.78300
Zn1402     Zn  0.66801341  0.83327376  0.94706594     1.55700
O1403       O  0.77490486  0.90315045  0.05028035    -0.79700
Cd1404     Cd  0.66480206  0.89653532  0.01721107     1.59700
Cd1405     Cd  0.60446509  0.76695331  0.01745735     1.59600
O1406       O  0.59784826  0.87038818  0.05030198    -0.79700
O1407       O  0.66791596  0.83320756  0.00043900    -1.90200
Cd1408     Cd  0.73425779  0.83606983  0.01752379     1.59900
O1409       O  0.55812683  0.78367244  0.05215313    -0.79600
O1410       O  0.77921552  0.83337155  0.97253794    -0.78300
C1411       C  0.56359217  0.73444999  0.93749071     0.84200
C1412       C  0.67360535  0.93761579  0.93725893     0.83900
O1413       O  0.72524270  0.82529989  0.92643435    -0.77200
C1414       C  0.76720534  0.93956874  0.06183925     0.84700
O1415       O  0.60296527  0.77600585  0.92620455    -0.77300
C1416       C  0.56155247  0.82638139  0.06220585     0.84800
C1417       C  0.67464209  0.73365075  0.06205136     0.85200
O1418       O  0.63060139  0.72601939  0.05020831    -0.79800
N1419       N  0.50324704  0.60968107  0.30737758    -0.35400
N1420       N  0.92338940  0.56862074  0.24987748    -0.55900
N1421       N  0.00157601  0.60829432  0.19177528    -0.35400
N1422       N  0.58118471  0.64700682  0.24927116    -0.55900
C1423       C  0.96113977  0.57795042  0.32822151     0.28200
C1424       C  0.54561906  0.61908311  0.32758067     0.28200
C1425       C  0.95913647  0.57607760  0.17135138     0.28200
C1426       C  0.54368444  0.61777703  0.17120993     0.28200
C1427       C  0.89538966  0.56598752  0.28058648     0.36800
C1428       C  0.89431523  0.56470390  0.21948509     0.36800
C1429       C  0.61047532  0.67196342  0.27950646     0.36800
C1430       C  0.60949886  0.67167846  0.21862417     0.36800
C1431       C  0.97696841  0.56854484  0.36268910    -0.20700
C1432       C  0.53027600  0.59459114  0.36229935    -0.20700
C1433       C  0.97450441  0.56649667  0.13676632    -0.20700
C1434       C  0.52784611  0.59276390  0.13669116    -0.20700
C1435       C  0.84864886  0.56174779  0.26976670    -0.21700
C1436       C  0.84796884  0.56092942  0.23079591    -0.21700
C1437       C  0.65726993  0.71387179  0.26820639    -0.21700
C1438       C  0.65665110  0.71369841  0.22927881    -0.21700
C1439       C  0.90914920  0.56022480  0.31759371    -0.17100
C1440       C  0.59757768  0.65209876  0.31629138    -0.17100
C1441       C  0.59578006  0.65130535  0.18200833    -0.17100
C1442       C  0.90721303  0.55811704  0.18240941    -0.17100
H1443       H  0.95294613  0.54696099  0.38634965     0.15800
H1444       H  0.55476456  0.59693472  0.38561999     0.15800
H1445       H  0.95009604  0.54470080  0.11332560     0.15800
H1446       H  0.55198678  0.59489152  0.11318381     0.15800
H1447       H  0.81745036  0.55720328  0.28803522     0.14100
H1448       H  0.81620358  0.55574074  0.21290935     0.14100
H1449       H  0.68935392  0.73991583  0.28605984     0.14100
H1450       H  0.68821900  0.73955429  0.21096263     0.14100
H1451       H  0.00305049  0.62809423  0.28253067     0.27400
H1452       H  0.00186804  0.62705647  0.21656525     0.27400
N1453       N  0.89059379  0.89367895  0.30746856    -0.35400
N1454       N  0.85318874  0.93374644  0.24940055    -0.55900
N1455       N  0.89194171  0.89248834  0.19179800    -0.35400
N1456       N  0.93190390  0.85474801  0.24988140    -0.55900
C1457       C  0.88119629  0.92660674  0.32768608     0.28200
C1458       C  0.92226923  0.88328071  0.32831302     0.28200
C1459       C  0.88224748  0.92485646  0.17122358     0.28200
C1460       C  0.92424720  0.88238356  0.17132826     0.28200
C1461       C  0.82832785  0.93842217  0.27959292     0.36800
C1462       C  0.82834705  0.93693978  0.21870918     0.36800
C1463       C  0.93435068  0.82950258  0.28068702     0.36800
C1464       C  0.93599973  0.82955937  0.21957818     0.36800
C1465       C  0.90566388  0.93572116  0.36241672    -0.20700
C1466       C  0.93161499  0.90842773  0.36281642    -0.20700
C1467       C  0.90716603  0.93393664  0.13663291    -0.20700
C1468       C  0.93366959  0.90715711  0.13670674    -0.20700
C1469       C  0.78631021  0.94308546  0.26822932    -0.21700
C1470       C  0.78631762  0.94214758  0.22930493    -0.21700
C1471       C  0.93867302  0.78707340  0.27000740    -0.21700
C1472       C  0.93972090  0.78711643  0.23104218    -0.21700
C1473       C  0.84823376  0.94558108  0.31639078    -0.17100
C1474       C  0.93999159  0.84907019  0.31768137    -0.17100
C1475       C  0.94252106  0.84876143  0.18241988    -0.17100
C1476       C  0.84867165  0.94334220  0.18207027    -0.17100
H1477       H  0.90338032  0.95788378  0.38572666     0.15800
H1478       H  0.95309233  0.90591211  0.38651284     0.15800
H1479       H  0.90485495  0.95572378  0.11308283     0.15800
H1480       H  0.95557796  0.90467414  0.11327408     0.15800
H1481       H  0.76027755  0.94924078  0.28602044     0.14100
H1482       H  0.76034717  0.94759000  0.21093020     0.14100
H1483       H  0.94311529  0.76051248  0.28837793     0.14100
H1484       H  0.94496150  0.76052794  0.21326459     0.14100
H1485       H  0.87223976  0.87506444  0.28257466     0.27400
H1486       H  0.87325223  0.87418215  0.21668958     0.27400
C1487       C  0.83151702  0.53005259  0.40815805     0.03500
C1488       C  0.79929334  0.97519281  0.40570679     0.03500
C1489       C  0.80261498  0.94964357  0.37326767    -0.17000
C1490       C  0.83707923  0.97626412  0.34403270     0.03500
C1491       C  0.86767156  0.53073784  0.34579067     0.03500
C1492       C  0.86431544  0.55681541  0.37757668    -0.17000
H1493       H  0.88863382  0.59868794  0.37870939     0.05500
H1494       H  0.78065602  0.90762706  0.37169183     0.05500
N1495       N  0.60859958  0.49884979  0.19192077    -0.35400
N1496       N  0.56705678  0.91925418  0.24954801    -0.55900
N1497       N  0.60663521  0.49698468  0.30758309    -0.35400
N1498       N  0.64596613  0.57681414  0.24997573    -0.55900
C1499       C  0.57616232  0.95676426  0.17135963     0.28200
C1500       C  0.61874799  0.54114661  0.17140973     0.28200
C1501       C  0.57362304  0.95465957  0.32777603     0.28200
C1502       C  0.61682893  0.53902399  0.32835166     0.28200
C1503       C  0.56390368  0.89107634  0.21896687     0.36800
C1504       C  0.56226352  0.88993377  0.27985951     0.36800
C1505       C  0.67145180  0.60589801  0.21966467     0.36800
C1506       C  0.67097397  0.60474162  0.28078018     0.36800
C1507       C  0.56706034  0.97247506  0.13675335    -0.20700
C1508       C  0.59395433  0.52571294  0.13677790    -0.20700
C1509       C  0.56426338  0.96998065  0.36243109    -0.20700
C1510       C  0.59144586  0.52319770  0.36278693    -0.20700
C1511       C  0.55863814  0.84397376  0.22975312    -0.21700
C1512       C  0.55759981  0.84325456  0.26868162    -0.21700
C1513       C  0.71386420  0.65217105  0.23113033    -0.21700
C1514       C  0.71357200  0.65143769  0.27010317    -0.21700
C1515       C  0.55759828  0.90479078  0.18225060    -0.17100
C1516       C  0.65240468  0.59302293  0.18247706    -0.17100
C1517       C  0.65110010  0.59095487  0.31772375    -0.17100
C1518       C  0.55482021  0.90276834  0.31655948    -0.17100
H1519       H  0.54512888  0.94831201  0.11325214     0.15800
H1520       H  0.59646494  0.55002476  0.11331755     0.15800
H1521       H  0.54206644  0.94554127  0.38574656     0.15800
H1522       H  0.59377986  0.54715833  0.38642914     0.15800
H1523       H  0.55319553  0.81249529  0.21150082     0.14100
H1524       H  0.55132250  0.81118548  0.28659237     0.14100
H1525       H  0.74062559  0.68390469  0.21333116     0.14100
H1526       H  0.74002137  0.68256812  0.28845840     0.14100
H1527       H  0.62693601  0.49861679  0.21684574     0.27400
H1528       H  0.62544328  0.49724421  0.28277615     0.27400
C1529       C  0.82884645  0.52843013  0.09244446     0.03500
C1530       C  0.80072323  0.97325169  0.09260646     0.03500
C1531       C  0.80513287  0.94699720  0.12397527    -0.17000
C1532       C  0.83758096  0.97359874  0.15426870     0.03500
C1533       C  0.86532648  0.52833368  0.15438856     0.03500
C1534       C  0.86006653  0.55489594  0.12374299    -0.17000
H1535       H  0.88238746  0.59695396  0.12369763     0.05500
H1536       H  0.78470103  0.90490946  0.12423013     0.05500
C1537       C  0.69821277  0.66854345  0.40823989     0.03500
C1538       C  0.67577749  0.70091899  0.40562232     0.03500
C1539       C  0.64716848  0.69775159  0.37306513    -0.17000
C1540       C  0.63935243  0.66321065  0.34393893     0.03500
C1541       C  0.66298258  0.63238735  0.34589301     0.03500
C1542       C  0.69223791  0.63568025  0.37776177    -0.17000
H1543       H  0.70971072  0.61128275  0.37903303     0.05500
H1544       H  0.62722736  0.71983526  0.37132571     0.05500
C1545       C  0.70158731  0.67172644  0.09258400     0.03500
C1546       C  0.67445821  0.69982364  0.09274050     0.03500
C1547       C  0.64329680  0.69499239  0.12396252    -0.17000
C1548       C  0.63728691  0.66243311  0.15421757     0.03500
C1549       C  0.66447558  0.63483626  0.15440087     0.03500
C1550       C  0.69657421  0.64029476  0.12380950    -0.17000
H1551       H  0.71639752  0.61803591  0.12376308     0.05500
H1552       H  0.62151127  0.71532174  0.12417215     0.05500
C1553       C  0.52483516  0.82424395  0.40581917     0.03500
C1554       C  0.96991552  0.80160621  0.40822569     0.03500
C1555       C  0.94317825  0.80765118  0.37765150    -0.17000
C1556       C  0.96941026  0.83712474  0.34591330     0.03500
C1557       C  0.52397653  0.86100163  0.34419412     0.03500
C1558       C  0.55055000  0.85316645  0.37343244    -0.17000
H1559       H  0.59264793  0.87323309  0.37188958     0.05500
H1560       H  0.90122946  0.79008448  0.37875250     0.05500
C1561       C  0.52780860  0.82640542  0.09296292     0.03500
C1562       C  0.97252606  0.79946343  0.09268185     0.03500
C1563       C  0.94592012  0.80467649  0.12375750    -0.17000
C1564       C  0.97243031  0.83663913  0.15440465     0.03500
C1565       C  0.52729105  0.86339072  0.15445450     0.03500
C1566       C  0.55402199  0.85731090  0.12428653    -0.17000
H1567       H  0.59618823  0.87891949  0.12460651     0.05500
H1568       H  0.90379364  0.78504914  0.12357005     0.05500
loop_ 
_geom_bond_atom_site_label_1 
_geom_bond_atom_site_label_2 
_geom_bond_distance 
_geom_bond_site_symmetry_2 
_ccdc_geom_bond_type 
O1           C17   1.272       .  A
O1           Zn7   1.984       .  S
C2           O18   1.272       .  A
C2           O15   1.275       .  A
C2          C182   1.483       .  S
O3           C16   1.275       .  A
O3          Cd10   2.104   1_556  S
O4           C22   1.282       .  A
O4          Cd13   2.091       .  S
O5           C19   1.281       .  A
O5           Cd9   2.089       .  S
O6           C17   1.275       .  A
O6           Cd9   2.104   1_556  S
Zn7          O18   1.988       .  S
Zn7          O20   1.987       .  S
Zn7          O12   1.890       .  S
O8           C19   1.273       .  A
O8          Cd13   2.074       .  S
Cd9          O11   2.077       .  S
Cd9          O12   2.022   1_554  S
Cd10         O14   2.089       .  S
Cd10         O23   2.075       .  S
Cd10         O12   2.022   1_554  S
O11          C21   1.274       .  A
O12         Cd13   2.022   1_556  S
Cd13         O15   2.106   1_554  S
O14          C21   1.281       .  A
C16          O20   1.272       .  A
C16         C166   1.482       .  S
C17         C189   1.481       .  S
C19         C353   1.476       .  S
C21         C386   1.477       .  S
C22          O23   1.274       .  A
C22         C369   1.478       .  S
O24          C40   1.272       .  A
O24         Zn30   1.988       .  S
C25          O41   1.272       .  A
C25          O38   1.275       .  A
C25         C173   1.484       .  S
O26          C39   1.275       .  A
O26         Cd33   2.106       .  S
O27          C45   1.274       .  A
O27         Cd36   2.076       .  S
O28          C42   1.274       .  A
O28         Cd32   2.077       .  S
O29          C40   1.276       .  A
O29         Cd32   2.110       .  S
Zn30         O41   1.989       .  S
Zn30         O43   1.985       .  S
Zn30         O35   1.889       .  S
O31          C42   1.282       .  A
O31         Cd36   2.093       .  S
Cd32         O34   2.096       .  S
Cd32         O35   2.023       .  S
Cd33         O37   2.077       .  S
Cd33         O46   2.092       .  S
Cd33         O35   2.024       .  S
O34          C44   1.283       .  A
O35         Cd36   2.024       .  S
Cd36         O38   2.108       .  S
O37          C44   1.274       .  A
C39          O43   1.272       .  A
C39         C157   1.483       .  S
C40         C150   1.485       .  S
C42         C378   1.479       .  S
C44         C311   1.481       .  S
C45          O46   1.282       .  A
C45         C361   1.479       .  S
N47          H79   1.040       .  S
N47          C51   1.349       .  A
N47         C444   1.351       .  A
N48          C55   1.348       .  A
N48          C56   1.350       .  A
N49          H80   1.040       .  S
N49          C53   1.351       .  A
N49         C446   1.349       .  A
N50          C57   1.346       .  A
N50          C58   1.345       .  A
C51          C59   1.387       .  A
C51          C67   1.413       .  A
C52         N439   1.351       .  A
C52          C68   1.412       .  A
C52          C60   1.386       .  A
C53          C61   1.386       .  A
C53          C70   1.412       .  A
C54         N441   1.349       .  A
C54          C69   1.412       .  A
C54          C62   1.387       .  A
C55          C67   1.410       .  A
C55          C63   1.385       .  A
C56          C70   1.410       .  A
C56          C64   1.384       .  A
C57          C65   1.384       .  A
C57          C68   1.404       .  A
C58          C66   1.385       .  A
C58          C69   1.404       .  A
C59         C452   1.373       .  A
C59          H71   1.080       .  S
C60         C451   1.373   1_545  A
C60          H72   1.080       .  S
C61         C454   1.372       .  A
C61          H73   1.080       .  S
C62         C453   1.372   1_545  A
C62          H74   1.080       .  S
C63          C64   1.381       .  A
C63          H75   1.082       .  S
C64          H76   1.082       .  S
C65          C66   1.379       .  A
C65          H77   1.082       .  S
C66          H78   1.082       .  S
C67         C176   1.486       .  S
C68         C152   1.486       .  S
C69         C193   1.480       .  S
C70         C169   1.491       .  S
N81         H113   1.040       .  S
N81          C86   1.350       .  A
N81          C85   1.350       .  A
N82          C89   1.349       .  A
N82          C90   1.348       .  A
N83         H114   1.040       .  S
N83          C88   1.351       .  A
N83          C87   1.350       .  A
N84          C91   1.345       .  A
N84          C92   1.346       .  A
C85          C93   1.386       .  A
C85         C101   1.412       .  A
C86         C102   1.412       .  A
C86          C94   1.386       .  A
C87          C95   1.387       .  A
C87         C104   1.413       .  A
C88         C103   1.413       .  A
C88          C96   1.386       .  A
C89         C101   1.410       .  A
C89          C97   1.384       .  A
C90         C104   1.410       .  A
C90          C98   1.385       .  A
C91          C99   1.385       .  A
C91         C102   1.404       .  A
C92         C100   1.384       .  A
C92         C103   1.403       .  A
C93          C94   1.372       .  A
C93         H105   1.080       .  S
C94         H106   1.080       .  S
C95          C96   1.373       .  A
C95         H107   1.080       .  S
C96         H108   1.080       .  S
C97          C98   1.381       .  A
C97         H109   1.082       .  S
C98         H110   1.082       .  S
C99         C100   1.379       .  A
C99         H111   1.082       .  S
C100        H112   1.082       .  S
C101        C192   1.490       .  S
C102        C184   1.480       .  S
C103        C161   1.484       .  S
C104        C153   1.487       .  S
N115        H931   1.039       .  S
N115        C119   1.349       .  A
N115        C904   1.351       .  A
N116        C123   1.344       .  A
N116        C124   1.346       .  A
N117        H148   1.039       .  S
N117        C122   1.349   1_655  A
N117        C905   1.352       .  A
N118        C125   1.350       .  A
N118        C126   1.348       .  A
C119        C127   1.387       .  A
C119        C135   1.412       .  A
C120        N899   1.351   1_455  A
C120        C136   1.412       .  A
C120        C128   1.386       .  A
C121        N901   1.352       .  A
C121        C129   1.385       .  A
C121        C138   1.412       .  A
C122        C137   1.412       .  A
C122        C130   1.387       .  A
C123        C135   1.404       .  A
C123        C131   1.385       .  A
C124        C138   1.403       .  A
C124        C132   1.384       .  A
C125        C133   1.384       .  A
C125        C136   1.409       .  A
C126        C134   1.385       .  A
C126        C137   1.410       .  A
C127        C912   1.372       .  A
C127        H139   1.080       .  S
C128        C911   1.372   1_455  A
C128        H140   1.080       .  S
C129        C914   1.373       .  A
C129        H141   1.080       .  S
C130        C913   1.373   1_455  A
C130        H142   1.080       .  S
C131        C132   1.379       .  A
C131        H143   1.082       .  S
C132        H144   1.082       .  S
C133        C134   1.381       .  A
C133        H145   1.082       .  S
C134        H146   1.082       .  S
C135        C168   1.478       .  S
C136        C185   1.491       .  S
C137        C160   1.484       .  S
C138        C177   1.486       .  S
H147        N899   1.039       .  S
C149        C217   1.480       .  S
C149        C154   1.409       .  A
C149        C934   1.424   1_455  A
C150        C151   1.409       .  A
C150        C933   1.424       .  A
C151        C152   1.393       .  A
C151        H156   1.085       .  S
C152        C937   1.410       .  A
C153        C154   1.400       .  A
C153        C936   1.410   1_455  A
C154        H155   1.085       .  S
C157        C162   1.408       .  A
C157        C550   1.424   1_545  A
C158        C215   1.479       .  S
C158        C159   1.407       .  A
C158        C549   1.424       .  A
C159        C160   1.398       .  A
C159        H164   1.085       .  S
C160        C553   1.409       .  A
C161        C162   1.391       .  A
C161        C552   1.409   1_545  A
C162        H163   1.085       .  S
C165        C221   1.479       .  S
C165        C166   1.422       .  A
C165        C170   1.412       .  A
C166        C167   1.407       .  A
C167        C168   1.394       .  A
C167        H172   1.086       .  S
C168        C169   1.408       .  A
C169        C170   1.396       .  A
C170        H171   1.085       .  S
C173        C174   1.424       .  A
C173        C178   1.409       .  A
C174        C218   1.480       .  S
C174        C175   1.408       .  A
C175        C176   1.400       .  A
C175        H180   1.085       .  S
C176        C177   1.410       .  A
C177        C178   1.392       .  A
C178        H179   1.085       .  S
C181        C236   1.480       .  S
C181        C186   1.413       .  A
C181        C574   1.423       .  A
C182        C183   1.407       .  A
C182        C573   1.423   1_545  A
C183        C184   1.394       .  A
C183        H188   1.086       .  S
C184        C577   1.409   1_545  A
C185        C186   1.397       .  A
C185        C576   1.409       .  A
C186        H187   1.085       .  S
C189        C194   1.407       .  A
C189        C974   1.422       .  A
C190        C235   1.479       .  S
C190        C191   1.412       .  A
C190        C973   1.422   1_455  A
C191        C192   1.397       .  A
C191        H196   1.085       .  S
C192        C977   1.408   1_455  A
C193        C194   1.394       .  A
C193        C976   1.408       .  A
C194        H195   1.086       .  S
O197        C213   1.272       .  A
O197       Zn203   1.984       .  S
C198        O214   1.272       .  A
C198        O211   1.275       .  A
C198        C312   1.484       .  S
O199        C212   1.275       .  A
O199       Cd206   2.106       .  S
O200        C218   1.282       .  A
O200       Cd209   2.094       .  S
O201        C215   1.282       .  A
O201       Cd205   2.093       .  S
O202        C213   1.275       .  A
O202       Cd205   2.106       .  S
Zn203       O214   1.988       .  S
Zn203       O216   1.987       .  S
Zn203       O208   1.888       .  S
O204        C215   1.274       .  A
O204       Cd209   2.074       .  S
Cd205       O207   2.078       .  S
Cd205       O208   2.023       .  S
Cd206       O210   2.093       .  S
Cd206       O219   2.077       .  S
Cd206       O208   2.023       .  S
O207        C217   1.274       .  A
O208       Cd209   2.023       .  S
Cd209       O211   2.107       .  S
O210        C217   1.282       .  A
C212        O216   1.272       .  A
C212        C362   1.484       .  S
C213        C377   1.483       .  S
C218        O219   1.274       .  A
O220        C236   1.270       .  A
O220       Zn226   1.977       .  S
C221        O237   1.269       .  A
C221        O234   1.275       .  A
O222        C235   1.275       .  A
O222       Cd229   2.106   1_556  S
O223        C241   1.275       .  A
O223       Cd232   2.084       .  S
O224        C238   1.274       .  A
O224       Cd228   2.080       .  S
O225        C236   1.275       .  A
O225       Cd228   2.108   1_556  S
Zn226       O237   1.972       .  S
Zn226       O239   1.974       .  S
Zn226       O231   1.891   1_556  S
O227        C238   1.283       .  A
O227       Cd232   2.094       .  S
Cd228       O230   2.095       .  S
Cd228       O231   2.023       .  S
Cd229       O233   2.084       .  S
Cd229       O242   2.094       .  S
Cd229       O231   2.023       .  S
O230        C240   1.283       .  A
O231       Cd232   2.024       .  S
Cd232       O234   2.107   1_554  S
O233        C240   1.275       .  A
C235        O239   1.270       .  A
C238        C354   1.479       .  S
C240        C385   1.481       .  S
C241        O242   1.282       .  A
C241        C370   1.480       .  S
N243       H1059   1.039       .  S
N243        C248   1.351       .  A
N243       C1031   1.350   1_455  A
N244        C251   1.348       .  A
N244        C252   1.349       .  A
N245        H276   1.039       .  S
N245        C249   1.351       .  A
N245       C1034   1.350       .  A
N246        C253   1.346       .  A
N246        C254   1.345       .  A
C247       N1027   1.350       .  A
C247        C255   1.387       .  A
C247        C263   1.412       .  A
C248        C264   1.412       .  A
C248        C256   1.386       .  A
C249        C257   1.386       .  A
C249        C266   1.413       .  A
C250       N1029   1.350       .  A
C250        C265   1.412       .  A
C250        C258   1.386       .  A
C251        C263   1.409       .  A
C251        C259   1.385       .  A
C252        C266   1.409       .  A
C252        C260   1.384       .  A
C253        C261   1.384       .  A
C253        C264   1.403       .  A
C254        C262   1.385       .  A
C254        C265   1.404       .  A
C255       C1040   1.372       .  A
C255        H267   1.080       .  S
C256       C1039   1.372   1_455  A
C256        H268   1.080       .  S
C257       C1042   1.373       .  A
C257        H269   1.080       .  S
C258       C1041   1.373   1_455  A
C258        H270   1.080       .  S
C259        C260   1.381       .  A
C259        H271   1.082       .  S
C260        H272   1.082       .  S
C261        C262   1.379       .  A
C261        H273   1.082       .  S
C262        H274   1.082       .  S
C263        C315   1.485       .  S
C264        C364   1.483       .  S
C265        C372   1.481       .  S
C266        C357   1.489       .  S
H275       N1027   1.039       .  S
N277        H309   1.039       .  S
N277        C282   1.349       .  A
N277        C281   1.352       .  A
N278        C285   1.346       .  A
N278        C286   1.344       .  A
N279        H310   1.039       .  S
N279        C284   1.352       .  A
N279        C283   1.350       .  A
N280        C287   1.348       .  A
N280        C288   1.350       .  A
C281        C289   1.385       .  A
C281        C297   1.412       .  A
C282        C298   1.412       .  A
C282        C290   1.387       .  A
C283        C291   1.387       .  A
C283        C300   1.413       .  A
C284        C299   1.413       .  A
C284        C292   1.386       .  A
C285        C297   1.403       .  A
C285        C293   1.384       .  A
C286        C300   1.404       .  A
C286        C294   1.386       .  A
C287        C295   1.385       .  A
C287        C298   1.410       .  A
C288        C296   1.384       .  A
C288        C299   1.410       .  A
C289        C290   1.372       .  A
C289        H301   1.080       .  S
C290        H302   1.080       .  S
C291        C292   1.373       .  A
C291        H303   1.080       .  S
C292        H304   1.080       .  S
C293        C294   1.379       .  A
C293        H305   1.082       .  S
C294        H306   1.082       .  S
C295        C296   1.381       .  A
C295        H307   1.082       .  S
C296        H308   1.082       .  S
C297        C314   1.486       .  S
C298        C380   1.484       .  S
C299        C388   1.492       .  S
C300        C356   1.479       .  S
C311        C316   1.408       .  A
C311        C704   1.424   1_545  A
C312        C313   1.409       .  A
C312        C703   1.424       .  A
C313        C314   1.392       .  A
C313        H318   1.085       .  S
C314        C707   1.410       .  A
C315        C316   1.400       .  A
C315        C706   1.410   1_545  A
C316        H317   1.085       .  S
N319        H351   1.040       .  S
N319        C324   1.351   1_565  A
N319        C715   1.350       .  A
N320        C327   1.345       .  A
N320        C328   1.346       .  A
N321        H352   1.039       .  S
N321        C326   1.350   1_565  A
N321        C717   1.351       .  A
N322        C329   1.349       .  A
N322        C330   1.348       .  A
C323        N711   1.350       .  A
C323        C331   1.386       .  A
C323        C339   1.412       .  A
C324        C340   1.413       .  A
C324        C332   1.386       .  A
C325        N713   1.351       .  A
C325        C333   1.386       .  A
C325        C342   1.412       .  A
C326        C341   1.413       .  A
C326        C334   1.387       .  A
C327        C339   1.404       .  A
C327        C335   1.385       .  A
C328        C342   1.404       .  A
C328        C336   1.384       .  A
C329        C337   1.384       .  A
C329        C340   1.409       .  A
C330        C338   1.385       .  A
C330        C341   1.410       .  A
C331        C724   1.373       .  A
C331        H343   1.080       .  S
C332        C723   1.373   1_545  A
C332        H344   1.080       .  S
C333        C726   1.373       .  A
C333        H345   1.080       .  S
C334        C725   1.373   1_545  A
C334        H346   1.080       .  S
C335        C336   1.379       .  A
C335        H347   1.082       .  S
C336        H348   1.082       .  S
C337        C338   1.381       .  A
C337        H349   1.082       .  S
C338        H350   1.082       .  S
C339        C389   1.480       .  S
C340        C373   1.491       .  S
C341        C365   1.486       .  S
C342        C381   1.485       .  S
C353        C358   1.407       .  A
C353        C746   1.423   1_545  A
C354        C355   1.402       .  A
C354        C745   1.423       .  A
C355        C356   1.395       .  A
C355        H360   1.086       .  S
C356        C749   1.412       .  A
C357        C358   1.398       .  A
C357        C748   1.412   1_545  A
C358        H359   1.085       .  S
C361        C362   1.424       .  A
C361        C366   1.408       .  A
C362        C363   1.408       .  A
C363        C364   1.392       .  A
C363        H368   1.085       .  S
C364        C365   1.409       .  A
C365        C366   1.399       .  A
C366        H367   1.085       .  S
C369        C370   1.423       .  A
C369        C374   1.408       .  A
C370        C371   1.403       .  A
C371        C372   1.396       .  A
C371        H376   1.086       .  S
C372        C373   1.412       .  A
C373        C374   1.399       .  A
C374        H375   1.085       .  S
C377        C382   1.408       .  A
C377       C1162   1.423   1_455  A
C378        C379   1.407       .  A
C378       C1161   1.423       .  A
C379        C380   1.399       .  A
C379        H384   1.085       .  S
C380       C1165   1.409       .  A
C381        C382   1.392       .  A
C381       C1164   1.409   1_455  A
C382        H383   1.085       .  S
C385        C390   1.403       .  A
C385       C1170   1.423   1_455  A
C386        C387   1.409       .  A
C386       C1169   1.423       .  A
C387        C388   1.399       .  A
C387        H392   1.085       .  S
C388       C1173   1.412       .  A
C389        C390   1.396       .  A
C389       C1172   1.412   1_455  A
C390        H391   1.086       .  S
O393        C409   1.272       .  A
O393       Zn399   1.984       .  S
C394        O410   1.272       .  A
C394        O407   1.275       .  A
C394        C574   1.483       .  S
O395        C408   1.275       .  A
O395       Cd402   2.104   1_556  S
O396        C414   1.282       .  A
O396       Cd405   2.091       .  S
O397        C411   1.281       .  A
O397       Cd401   2.089       .  S
O398        C409   1.275       .  A
O398       Cd401   2.104   1_556  S
Zn399       O410   1.988       .  S
Zn399       O412   1.987       .  S
Zn399       O404   1.890       .  S
O400        C411   1.273       .  A
O400       Cd405   2.074       .  S
Cd401       O403   2.077       .  S
Cd401       O404   2.022   1_554  S
Cd402       O406   2.089       .  S
Cd402       O415   2.075       .  S
Cd402       O404   2.022   1_554  S
O403        C413   1.274       .  A
O404       Cd405   2.022   1_556  S
Cd405       O407   2.106   1_554  S
O406        C413   1.281       .  A
C408        O412   1.272       .  A
C408        C558   1.482       .  S
C409        C581   1.481       .  S
C411        C745   1.476       .  S
C413        C778   1.477       .  S
C414        O415   1.274       .  A
C414        C761   1.478       .  S
O416        C432   1.272       .  A
O416       Zn422   1.988       .  S
C417        O433   1.272       .  A
C417        O430   1.275       .  A
C417        C565   1.484       .  S
O418        C431   1.275       .  A
O418       Cd425   2.106       .  S
O419        C437   1.274       .  A
O419       Cd428   2.076       .  S
O420        C434   1.274       .  A
O420       Cd424   2.077       .  S
O421        C432   1.276       .  A
O421       Cd424   2.110       .  S
Zn422       O433   1.989       .  S
Zn422       O435   1.985       .  S
Zn422       O427   1.889       .  S
O423        C434   1.282       .  A
O423       Cd428   2.093       .  S
Cd424       O426   2.096       .  S
Cd424       O427   2.023       .  S
Cd425       O429   2.077       .  S
Cd425       O438   2.092       .  S
Cd425       O427   2.024       .  S
O426        C436   1.283       .  A
O427       Cd428   2.024       .  S
Cd428       O430   2.108       .  S
O429        C436   1.274       .  A
C431        O435   1.272       .  A
C431        C549   1.483       .  S
C432        C542   1.485       .  S
C434        C770   1.479       .  S
C436        C703   1.481       .  S
C437        O438   1.282       .  A
C437        C753   1.479       .  S
N439        H471   1.040       .  S
N439        C443   1.349   1_545  A
N440        C447   1.348       .  A
N440        C448   1.350       .  A
N441        H472   1.040       .  S
N441        C445   1.351   1_545  A
N442        C449   1.346       .  A
N442        C450   1.345       .  A
C443        C451   1.387       .  A
C443        C459   1.413       .  A
C444        C460   1.412       .  A
C444        C452   1.386       .  A
C445        C453   1.386       .  A
C445        C462   1.412       .  A
C446        C461   1.412       .  A
C446        C454   1.387       .  A
C447        C459   1.410       .  A
C447        C455   1.385       .  A
C448        C462   1.410       .  A
C448        C456   1.384       .  A
C449        C457   1.384       .  A
C449        C460   1.404       .  A
C450        C458   1.385       .  A
C450        C461   1.404       .  A
C451        H463   1.080       .  S
C452        H464   1.080       .  S
C453        H465   1.080       .  S
C454        H466   1.080       .  S
C455        C456   1.381       .  A
C455        H467   1.082       .  S
C456        H468   1.082       .  S
C457        C458   1.379       .  A
C457        H469   1.082       .  S
C458        H470   1.082       .  S
C459        C568   1.486       .  S
C460        C544   1.486       .  S
C461        C585   1.480       .  S
C462        C561   1.491       .  S
N473        H505   1.040       .  S
N473        C478   1.350       .  A
N473        C477   1.350       .  A
N474        C481   1.349       .  A
N474        C482   1.348       .  A
N475        H506   1.040       .  S
N475        C480   1.351       .  A
N475        C479   1.350       .  A
N476        C483   1.345       .  A
N476        C484   1.346       .  A
C477        C485   1.386       .  A
C477        C493   1.412       .  A
C478        C494   1.412       .  A
C478        C486   1.386       .  A
C479        C487   1.387       .  A
C479        C496   1.413       .  A
C480        C495   1.413       .  A
C480        C488   1.386       .  A
C481        C493   1.410       .  A
C481        C489   1.384       .  A
C482        C496   1.410       .  A
C482        C490   1.385       .  A
C483        C491   1.385       .  A
C483        C494   1.404       .  A
C484        C492   1.384       .  A
C484        C495   1.403       .  A
C485        C486   1.372       .  A
C485        H497   1.080       .  S
C486        H498   1.080       .  S
C487        C488   1.373       .  A
C487        H499   1.080       .  S
C488        H500   1.080       .  S
C489        C490   1.381       .  A
C489        H501   1.082       .  S
C490        H502   1.082       .  S
C491        C492   1.379       .  A
C491        H503   1.082       .  S
C492        H504   1.082       .  S
C493        C584   1.490       .  S
C494        C576   1.480       .  S
C495        C553   1.484       .  S
C496        C545   1.487       .  S
N507       H1323   1.039       .  S
N507       C1296   1.351       .  A
N507        C511   1.349       .  A
N508        C515   1.344       .  A
N508        C516   1.346       .  A
N509        H540   1.039       .  S
N509        C514   1.349   1_655  A
N509       C1297   1.352       .  A
N510        C517   1.350       .  A
N510        C518   1.348       .  A
C511        C519   1.387       .  A
C511        C527   1.412       .  A
C512       N1291   1.351   1_455  A
C512        C528   1.412       .  A
C512        C520   1.386       .  A
C513       N1293   1.352       .  A
C513        C521   1.385       .  A
C513        C530   1.412       .  A
C514        C529   1.412       .  A
C514        C522   1.387       .  A
C515        C527   1.404       .  A
C515        C523   1.385       .  A
C516        C530   1.403       .  A
C516        C524   1.384       .  A
C517        C525   1.384       .  A
C517        C528   1.409       .  A
C518        C526   1.385       .  A
C518        C529   1.410       .  A
C519       C1304   1.372       .  A
C519        H531   1.080       .  S
C520       C1303   1.372   1_455  A
C520        H532   1.080       .  S
C521       C1306   1.373       .  A
C521        H533   1.080       .  S
C522       C1305   1.373   1_455  A
C522        H534   1.080       .  S
C523        C524   1.379       .  A
C523        H535   1.082       .  S
C524        H536   1.082       .  S
C525        C526   1.381       .  A
C525        H537   1.082       .  S
C526        H538   1.082       .  S
C527        C560   1.478       .  S
C528        C577   1.491       .  S
C529        C552   1.484       .  S
C530        C569   1.486       .  S
H539       N1291   1.039       .  S
C541        C609   1.480       .  S
C541       C1326   1.424   1_455  A
C541        C546   1.409       .  A
C542       C1325   1.424       .  A
C542        C543   1.409       .  A
C543        C544   1.393       .  A
C543        H548   1.085       .  S
C544       C1329   1.410       .  A
C545       C1328   1.410   1_455  A
C545        C546   1.400       .  A
C546        H547   1.085       .  S
C549        C554   1.408       .  A
C550        C607   1.479       .  S
C550        C551   1.407       .  A
C551        C552   1.398       .  A
C551        H556   1.085       .  S
C553        C554   1.391       .  A
C554        H555   1.085       .  S
C557        C613   1.479       .  S
C557        C558   1.422       .  A
C557        C562   1.412       .  A
C558        C559   1.407       .  A
C559        C560   1.394       .  A
C559        H564   1.086       .  S
C560        C561   1.408       .  A
C561        C562   1.396       .  A
C562        H563   1.085       .  S
C565        C566   1.424       .  A
C565        C570   1.409       .  A
C566        C610   1.480       .  S
C566        C567   1.408       .  A
C567        C568   1.400       .  A
C567        H572   1.085       .  S
C568        C569   1.410       .  A
C569        C570   1.392       .  A
C570        H571   1.085       .  S
C573        C628   1.480       .  S
C573        C578   1.413       .  A
C574        C575   1.407       .  A
C575        C576   1.394       .  A
C575        H580   1.086       .  S
C577        C578   1.397       .  A
C578        H579   1.085       .  S
C581       C1366   1.422       .  A
C581        C586   1.407       .  A
C582        C627   1.479       .  S
C582       C1365   1.422   1_455  A
C582        C583   1.412       .  A
C583        C584   1.397       .  A
C583        H588   1.085       .  S
C584       C1369   1.408   1_455  A
C585       C1368   1.408       .  A
C585        C586   1.394       .  A
C586        H587   1.086       .  S
O589        C605   1.272       .  A
O589       Zn595   1.984       .  S
C590        O606   1.272       .  A
C590        O603   1.275       .  A
C590        C704   1.484       .  S
O591        C604   1.275       .  A
O591       Cd598   2.106       .  S
O592        C610   1.282       .  A
O592       Cd601   2.094       .  S
O593        C607   1.282       .  A
O593       Cd597   2.093       .  S
O594        C605   1.275       .  A
O594       Cd597   2.106       .  S
Zn595       O606   1.988       .  S
Zn595       O608   1.987       .  S
Zn595       O600   1.888       .  S
O596        C607   1.274       .  A
O596       Cd601   2.074       .  S
Cd597       O599   2.078       .  S
Cd597       O600   2.023       .  S
Cd598       O602   2.093       .  S
Cd598       O611   2.077       .  S
Cd598       O600   2.023       .  S
O599        C609   1.274       .  A
O600       Cd601   2.023       .  S
Cd601       O603   2.107       .  S
O602        C609   1.282       .  A
C604        O608   1.272       .  A
C604        C754   1.484       .  S
C605        C769   1.483       .  S
C610        O611   1.274       .  A
O612        C628   1.270       .  A
O612       Zn618   1.977       .  S
C613        O629   1.269       .  A
C613        O626   1.275       .  A
O614        C627   1.275       .  A
O614       Cd621   2.106   1_556  S
O615        C633   1.275       .  A
O615       Cd624   2.084       .  S
O616        C630   1.274       .  A
O616       Cd620   2.080       .  S
O617        C628   1.275       .  A
O617       Cd620   2.108   1_556  S
Zn618       O629   1.972       .  S
Zn618       O631   1.974       .  S
Zn618       O623   1.891   1_556  S
O619        C630   1.283       .  A
O619       Cd624   2.094       .  S
Cd620       O622   2.095       .  S
Cd620       O623   2.023       .  S
Cd621       O625   2.084       .  S
Cd621       O634   2.094       .  S
Cd621       O623   2.023       .  S
O622        C632   1.283       .  A
O623       Cd624   2.024       .  S
Cd624       O626   2.107   1_554  S
O625        C632   1.275       .  A
C627        O631   1.270       .  A
C630        C746   1.479       .  S
C632        C777   1.481       .  S
C633        O634   1.282       .  A
C633        C762   1.480       .  S
N635       H1451   1.039       .  S
N635        C640   1.351       .  A
N635       C1423   1.350   1_455  A
N636        C643   1.348       .  A
N636        C644   1.349       .  A
N637        H668   1.039       .  S
N637       C1426   1.350       .  A
N637        C641   1.351       .  A
N638        C645   1.346       .  A
N638        C646   1.345       .  A
C639       N1419   1.350       .  A
C639        C647   1.387       .  A
C639        C655   1.412       .  A
C640        C656   1.412       .  A
C640        C648   1.386       .  A
C641        C649   1.386       .  A
C641        C658   1.413       .  A
C642       N1421   1.350       .  A
C642        C657   1.412       .  A
C642        C650   1.386       .  A
C643        C655   1.409       .  A
C643        C651   1.385       .  A
C644        C658   1.409       .  A
C644        C652   1.384       .  A
C645        C653   1.384       .  A
C645        C656   1.403       .  A
C646        C654   1.385       .  A
C646        C657   1.404       .  A
C647       C1432   1.372       .  A
C647        H659   1.080       .  S
C648       C1431   1.372   1_455  A
C648        H660   1.080       .  S
C649       C1434   1.373       .  A
C649        H661   1.080       .  S
C650       C1433   1.373   1_455  A
C650        H662   1.080       .  S
C651        C652   1.381       .  A
C651        H663   1.082       .  S
C652        H664   1.082       .  S
C653        C654   1.379       .  A
C653        H665   1.082       .  S
C654        H666   1.082       .  S
C655        C707   1.485       .  S
C656        C756   1.483       .  S
C657        C764   1.481       .  S
C658        C749   1.489       .  S
H667       N1419   1.039       .  S
N669        H701   1.039       .  S
N669        C674   1.349       .  A
N669        C673   1.352       .  A
N670        C677   1.346       .  A
N670        C678   1.344       .  A
N671        H702   1.039       .  S
N671        C676   1.352       .  A
N671        C675   1.350       .  A
N672        C679   1.348       .  A
N672        C680   1.350       .  A
C673        C681   1.385       .  A
C673        C689   1.412       .  A
C674        C690   1.412       .  A
C674        C682   1.387       .  A
C675        C683   1.387       .  A
C675        C692   1.413       .  A
C676        C691   1.413       .  A
C676        C684   1.386       .  A
C677        C689   1.403       .  A
C677        C685   1.384       .  A
C678        C692   1.404       .  A
C678        C686   1.386       .  A
C679        C687   1.385       .  A
C679        C690   1.410       .  A
C680        C688   1.384       .  A
C680        C691   1.410       .  A
C681        C682   1.372       .  A
C681        H693   1.080       .  S
C682        H694   1.080       .  S
C683        C684   1.373       .  A
C683        H695   1.080       .  S
C684        H696   1.080       .  S
C685        C686   1.379       .  A
C685        H697   1.082       .  S
C686        H698   1.082       .  S
C687        C688   1.381       .  A
C687        H699   1.082       .  S
C688        H700   1.082       .  S
C689        C706   1.486       .  S
C690        C772   1.484       .  S
C691        C780   1.492       .  S
C692        C748   1.479       .  S
C703        C708   1.408       .  A
C704        C705   1.409       .  A
C705        C706   1.392       .  A
C705        H710   1.085       .  S
C707        C708   1.400       .  A
C708        H709   1.085       .  S
N711        H743   1.040       .  S
N711        C716   1.351       .  A
N712        C719   1.345       .  A
N712        C720   1.346       .  A
N713        H744   1.039       .  S
N713        C718   1.350       .  A
N714        C721   1.349       .  A
N714        C722   1.348       .  A
C715        C723   1.386       .  A
C715        C731   1.412       .  A
C716        C732   1.413       .  A
C716        C724   1.386       .  A
C717        C725   1.386       .  A
C717        C734   1.412       .  A
C718        C733   1.413       .  A
C718        C726   1.387       .  A
C719        C731   1.404       .  A
C719        C727   1.385       .  A
C720        C734   1.404       .  A
C720        C728   1.384       .  A
C721        C729   1.384       .  A
C721        C732   1.409       .  A
C722        C730   1.385       .  A
C722        C733   1.410       .  A
C723        H735   1.080       .  S
C724        H736   1.080       .  S
C725        H737   1.080       .  S
C726        H738   1.080       .  S
C727        C728   1.379       .  A
C727        H739   1.082       .  S
C728        H740   1.082       .  S
C729        C730   1.381       .  A
C729        H741   1.082       .  S
C730        H742   1.082       .  S
C731        C781   1.480       .  S
C732        C765   1.491       .  S
C733        C757   1.486       .  S
C734        C773   1.485       .  S
C745        C750   1.407       .  A
C746        C747   1.402       .  A
C747        C748   1.395       .  A
C747        H752   1.086       .  S
C749        C750   1.398       .  A
C750        H751   1.085       .  S
C753        C754   1.424       .  A
C753        C758   1.408       .  A
C754        C755   1.408       .  A
C755        C756   1.392       .  A
C755        H760   1.085       .  S
C756        C757   1.409       .  A
C757        C758   1.399       .  A
C758        H759   1.085       .  S
C761        C762   1.423       .  A
C761        C766   1.408       .  A
C762        C763   1.403       .  A
C763        C764   1.396       .  A
C763        H768   1.086       .  S
C764        C765   1.412       .  A
C765        C766   1.399       .  A
C766        H767   1.085       .  S
C769       C1554   1.423   1_455  A
C769        C774   1.408       .  A
C770       C1553   1.423       .  A
C770        C771   1.407       .  A
C771        C772   1.399       .  A
C771        H776   1.085       .  S
C772       C1557   1.409       .  A
C773       C1556   1.409   1_455  A
C773        C774   1.392       .  A
C774        H775   1.085       .  S
C777       C1562   1.423   1_455  A
C777        C782   1.403       .  A
C778       C1561   1.423       .  A
C778        C779   1.409       .  A
C779        C780   1.399       .  A
C779        H784   1.085       .  S
C780       C1565   1.412       .  A
C781       C1564   1.412   1_455  A
C781        C782   1.396       .  A
C782        H783   1.086       .  S
O785        C801   1.272       .  A
O785       Zn791   1.984       .  S
C786        O802   1.272       .  A
C786        O799   1.275       .  A
C786        C966   1.483       .  S
O787        C800   1.275       .  A
O787       Cd794   2.104   1_556  S
O788        C806   1.282       .  A
O788       Cd797   2.091       .  S
O789        C803   1.281       .  A
O789       Cd793   2.089       .  S
O790        C801   1.275       .  A
O790       Cd793   2.104   1_556  S
Zn791       O802   1.988       .  S
Zn791       O804   1.987       .  S
Zn791       O796   1.890       .  S
O792        C803   1.273       .  A
O792       Cd797   2.074       .  S
Cd793       O795   2.077       .  S
Cd793       O796   2.022   1_554  S
Cd794       O798   2.089       .  S
Cd794       O807   2.075       .  S
Cd794       O796   2.022   1_554  S
O795        C805   1.274       .  A
O796       Cd797   2.022   1_556  S
Cd797       O799   2.106   1_554  S
O798        C805   1.281       .  A
C800        O804   1.272       .  A
C800        C950   1.482       .  S
C801        C973   1.481       .  S
C803       C1137   1.476       .  S
C805       C1170   1.477       .  S
C806        O807   1.274       .  A
C806       C1153   1.478       .  S
O808        C824   1.272       .  A
O808       Zn814   1.988       .  S
C809        O825   1.272       .  A
C809        O822   1.275       .  A
C809        C957   1.484       .  S
O810        C823   1.275       .  A
O810       Cd817   2.106       .  S
O811        C829   1.274       .  A
O811       Cd820   2.076       .  S
O812        C826   1.274       .  A
O812       Cd816   2.077       .  S
O813        C824   1.276       .  A
O813       Cd816   2.110       .  S
Zn814       O825   1.989       .  S
Zn814       O827   1.985       .  S
Zn814       O819   1.889       .  S
O815        C826   1.282       .  A
O815       Cd820   2.093       .  S
Cd816       O818   2.096       .  S
Cd816       O819   2.023       .  S
Cd817       O821   2.077       .  S
Cd817       O830   2.092       .  S
Cd817       O819   2.024       .  S
O818        C828   1.283       .  A
O819       Cd820   2.024       .  S
Cd820       O822   2.108       .  S
O821        C828   1.274       .  A
C823        O827   1.272       .  A
C823        C941   1.483       .  S
C824        C934   1.485       .  S
C826       C1162   1.479       .  S
C828       C1095   1.481       .  S
C829        O830   1.282       .  A
C829       C1145   1.479       .  S
N831        H863   1.040       .  S
N831       C1228   1.351       .  A
N831        C835   1.349       .  A
N832        C839   1.348       .  A
N832        C840   1.350       .  A
N833        H864   1.040       .  S
N833       C1230   1.349       .  A
N833        C837   1.351       .  A
N834        C841   1.346       .  A
N834        C842   1.345       .  A
C835        C843   1.387       .  A
C835        C851   1.413       .  A
C836       N1223   1.351       .  A
C836        C852   1.412       .  A
C836        C844   1.386       .  A
C837        C845   1.386       .  A
C837        C854   1.412       .  A
C838       N1225   1.349       .  A
C838        C853   1.412       .  A
C838        C846   1.387       .  A
C839        C851   1.410       .  A
C839        C847   1.385       .  A
C840        C854   1.410       .  A
C840        C848   1.384       .  A
C841        C849   1.384       .  A
C841        C852   1.404       .  A
C842        C850   1.385       .  A
C842        C853   1.404       .  A
C843       C1236   1.373       .  A
C843        H855   1.080       .  S
C844       C1235   1.373   1_545  A
C844        H856   1.080       .  S
C845       C1238   1.372       .  A
C845        H857   1.080       .  S
C846       C1237   1.372   1_545  A
C846        H858   1.080       .  S
C847        C848   1.381       .  A
C847        H859   1.082       .  S
C848        H860   1.082       .  S
C849        C850   1.379       .  A
C849        H861   1.082       .  S
C850        H862   1.082       .  S
C851        C960   1.486       .  S
C852        C936   1.486       .  S
C853        C977   1.480       .  S
C854        C953   1.491       .  S
N865        H897   1.040       .  S
N865        C870   1.350       .  A
N865        C869   1.350       .  A
N866        C873   1.349       .  A
N866        C874   1.348       .  A
N867        H898   1.040       .  S
N867        C872   1.351       .  A
N867        C871   1.350       .  A
N868        C875   1.345       .  A
N868        C876   1.346       .  A
C869        C877   1.386       .  A
C869        C885   1.412       .  A
C870        C886   1.412       .  A
C870        C878   1.386       .  A
C871        C879   1.387       .  A
C871        C888   1.413       .  A
C872        C887   1.413       .  A
C872        C880   1.386       .  A
C873        C885   1.410       .  A
C873        C881   1.384       .  A
C874        C888   1.410       .  A
C874        C882   1.385       .  A
C875        C883   1.385       .  A
C875        C886   1.404       .  A
C876        C884   1.384       .  A
C876        C887   1.403       .  A
C877        C878   1.372       .  A
C877        H889   1.080       .  S
C878        H890   1.080       .  S
C879        C880   1.373       .  A
C879        H891   1.080       .  S
C880        H892   1.080       .  S
C881        C882   1.381       .  A
C881        H893   1.082       .  S
C882        H894   1.082       .  S
C883        C884   1.379       .  A
C883        H895   1.082       .  S
C884        H896   1.082       .  S
C885        C976   1.490       .  S
C886        C968   1.480       .  S
C887        C945   1.484       .  S
C888        C937   1.487       .  S
N899        C903   1.349       .  A
N900        C907   1.344       .  A
N900        C908   1.346       .  A
N901        H932   1.039       .  S
N901        C906   1.349       .  A
N902        C909   1.350       .  A
N902        C910   1.348       .  A
C903        C911   1.387       .  A
C903        C919   1.412       .  A
C904        C920   1.412       .  A
C904        C912   1.386       .  A
C905        C913   1.385       .  A
C905        C922   1.412       .  A
C906        C921   1.412       .  A
C906        C914   1.387       .  A
C907        C919   1.404       .  A
C907        C915   1.385       .  A
C908        C922   1.403       .  A
C908        C916   1.384       .  A
C909        C917   1.384       .  A
C909        C920   1.409       .  A
C910        C918   1.385       .  A
C910        C921   1.410       .  A
C911        H923   1.080       .  S
C912        H924   1.080       .  S
C913        H925   1.080       .  S
C914        H926   1.080       .  S
C915        C916   1.379       .  A
C915        H927   1.082       .  S
C916        H928   1.082       .  S
C917        C918   1.381       .  A
C917        H929   1.082       .  S
C918        H930   1.082       .  S
C919        C952   1.478       .  S
C920        C969   1.491       .  S
C921        C944   1.484       .  S
C922        C961   1.486       .  S
C933       C1001   1.480       .  S
C933        C938   1.409       .  A
C934        C935   1.409       .  A
C935        C936   1.393       .  A
C935        H940   1.085       .  S
C937        C938   1.400       .  A
C938        H939   1.085       .  S
C941       C1334   1.424   1_545  A
C941        C946   1.408       .  A
C942        C999   1.479       .  S
C942       C1333   1.424       .  A
C942        C943   1.407       .  A
C943        C944   1.398       .  A
C943        H948   1.085       .  S
C944       C1337   1.409       .  A
C945       C1336   1.409   1_545  A
C945        C946   1.391       .  A
C946        H947   1.085       .  S
C949       C1005   1.479       .  S
C949        C950   1.422       .  A
C949        C954   1.412       .  A
C950        C951   1.407       .  A
C951        C952   1.394       .  A
C951        H956   1.086       .  S
C952        C953   1.408       .  A
C953        C954   1.396       .  A
C954        H955   1.085       .  S
C957        C958   1.424       .  A
C957        C962   1.409       .  A
C958       C1002   1.480       .  S
C958        C959   1.408       .  A
C959        C960   1.400       .  A
C959        H964   1.085       .  S
C960        C961   1.410       .  A
C961        C962   1.392       .  A
C962        H963   1.085       .  S
C965       C1020   1.480       .  S
C965       C1358   1.423       .  A
C965        C970   1.413       .  A
C966       C1357   1.423   1_545  A
C966        C967   1.407       .  A
C967        C968   1.394       .  A
C967        H972   1.086       .  S
C968       C1361   1.409   1_545  A
C969       C1360   1.409       .  A
C969        C970   1.397       .  A
C970        H971   1.085       .  S
C973        C978   1.407       .  A
C974       C1019   1.479       .  S
C974        C975   1.412       .  A
C975        C976   1.397       .  A
C975        H980   1.085       .  S
C977        C978   1.394       .  A
C978        H979   1.086       .  S
O981        C997   1.272       .  A
O981       Zn987   1.984       .  S
C982        O998   1.272       .  A
C982        O995   1.275       .  A
C982       C1096   1.484       .  S
O983        C996   1.275       .  A
O983       Cd990   2.106       .  S
O984       C1002   1.282       .  A
O984       Cd993   2.094       .  S
O985        C999   1.282       .  A
O985       Cd989   2.093       .  S
O986        C997   1.275       .  A
O986       Cd989   2.106       .  S
Zn987       O998   1.988       .  S
Zn987      O1000   1.987       .  S
Zn987       O992   1.888       .  S
O988        C999   1.274       .  A
O988       Cd993   2.074       .  S
Cd989       O991   2.078       .  S
Cd989       O992   2.023       .  S
Cd990       O994   2.093       .  S
Cd990      O1003   2.077       .  S
Cd990       O992   2.023       .  S
O991       C1001   1.274       .  A
O992       Cd993   2.023       .  S
Cd993       O995   2.107       .  S
O994       C1001   1.282       .  A
C996       O1000   1.272       .  A
C996       C1146   1.484       .  S
C997       C1161   1.483       .  S
C1002      O1003   1.274       .  A
O1004      C1020   1.270       .  A
O1004     Zn1010   1.977       .  S
C1005      O1021   1.269       .  A
C1005      O1018   1.275       .  A
O1006      C1019   1.275       .  A
O1006     Cd1013   2.106   1_556  S
O1007      C1025   1.275       .  A
O1007     Cd1016   2.084       .  S
O1008      C1022   1.274       .  A
O1008     Cd1012   2.080       .  S
O1009      C1020   1.275       .  A
O1009     Cd1012   2.108   1_556  S
Zn1010     O1021   1.972       .  S
Zn1010     O1023   1.974       .  S
Zn1010     O1015   1.891   1_556  S
O1011      C1022   1.283       .  A
O1011     Cd1016   2.094       .  S
Cd1012     O1014   2.095       .  S
Cd1012     O1015   2.023       .  S
Cd1013     O1017   2.084       .  S
Cd1013     O1026   2.094       .  S
Cd1013     O1015   2.023       .  S
O1014      C1024   1.283       .  A
O1015     Cd1016   2.024       .  S
Cd1016     O1018   2.107   1_554  S
O1017      C1024   1.275       .  A
C1019      O1023   1.270       .  A
C1022      C1138   1.479       .  S
C1024      C1169   1.481       .  S
C1025      O1026   1.282       .  A
C1025      C1154   1.480       .  S
N1027      C1032   1.351       .  A
N1028      C1035   1.348       .  A
N1028      C1036   1.349       .  A
N1029      H1060   1.039       .  S
N1029      C1033   1.351   1_455  A
N1030      C1037   1.346       .  A
N1030      C1038   1.345       .  A
C1031      C1039   1.387       .  A
C1031      C1047   1.412       .  A
C1032      C1048   1.412       .  A
C1032      C1040   1.386       .  A
C1033      C1041   1.386       .  A
C1033      C1050   1.413       .  A
C1034      C1049   1.412       .  A
C1034      C1042   1.386       .  A
C1035      C1047   1.409       .  A
C1035      C1043   1.385       .  A
C1036      C1050   1.409       .  A
C1036      C1044   1.384       .  A
C1037      C1045   1.384       .  A
C1037      C1048   1.403       .  A
C1038      C1046   1.385       .  A
C1038      C1049   1.404       .  A
C1039      H1051   1.080       .  S
C1040      H1052   1.080       .  S
C1041      H1053   1.080       .  S
C1042      H1054   1.080       .  S
C1043      C1044   1.381       .  A
C1043      H1055   1.082       .  S
C1044      H1056   1.082       .  S
C1045      C1046   1.379       .  A
C1045      H1057   1.082       .  S
C1046      H1058   1.082       .  S
C1047      C1099   1.485       .  S
C1048      C1148   1.483       .  S
C1049      C1156   1.481       .  S
C1050      C1141   1.489       .  S
N1061      H1093   1.039       .  S
N1061      C1066   1.349       .  A
N1061      C1065   1.352       .  A
N1062      C1069   1.346       .  A
N1062      C1070   1.344       .  A
N1063      H1094   1.039       .  S
N1063      C1068   1.352       .  A
N1063      C1067   1.350       .  A
N1064      C1071   1.348       .  A
N1064      C1072   1.350       .  A
C1065      C1073   1.385       .  A
C1065      C1081   1.412       .  A
C1066      C1082   1.412       .  A
C1066      C1074   1.387       .  A
C1067      C1075   1.387       .  A
C1067      C1084   1.413       .  A
C1068      C1083   1.413       .  A
C1068      C1076   1.386       .  A
C1069      C1081   1.403       .  A
C1069      C1077   1.384       .  A
C1070      C1084   1.404       .  A
C1070      C1078   1.386       .  A
C1071      C1079   1.385       .  A
C1071      C1082   1.410       .  A
C1072      C1080   1.384       .  A
C1072      C1083   1.410       .  A
C1073      C1074   1.372       .  A
C1073      H1085   1.080       .  S
C1074      H1086   1.080       .  S
C1075      C1076   1.373       .  A
C1075      H1087   1.080       .  S
C1076      H1088   1.080       .  S
C1077      C1078   1.379       .  A
C1077      H1089   1.082       .  S
C1078      H1090   1.082       .  S
C1079      C1080   1.381       .  A
C1079      H1091   1.082       .  S
C1080      H1092   1.082       .  S
C1081      C1098   1.486       .  S
C1082      C1164   1.484       .  S
C1083      C1172   1.492       .  S
C1084      C1140   1.479       .  S
C1095      C1488   1.424   1_545  A
C1095      C1100   1.408       .  A
C1096      C1487   1.424       .  A
C1096      C1097   1.409       .  A
C1097      C1098   1.392       .  A
C1097      H1102   1.085       .  S
C1098      C1491   1.410       .  A
C1099      C1490   1.410   1_545  A
C1099      C1100   1.400       .  A
C1100      H1101   1.085       .  S
N1103      H1135   1.040       .  S
N1103      C1108   1.351   1_565  A
N1103      C1499   1.350       .  A
N1104      C1111   1.345       .  A
N1104      C1112   1.346       .  A
N1105      H1136   1.039       .  S
N1105      C1110   1.350   1_565  A
N1105      C1501   1.351       .  A
N1106      C1113   1.349       .  A
N1106      C1114   1.348       .  A
C1107      N1495   1.350       .  A
C1107      C1115   1.386       .  A
C1107      C1123   1.412       .  A
C1108      C1124   1.413       .  A
C1108      C1116   1.386       .  A
C1109      N1497   1.351       .  A
C1109      C1117   1.386       .  A
C1109      C1126   1.412       .  A
C1110      C1125   1.413       .  A
C1110      C1118   1.387       .  A
C1111      C1123   1.404       .  A
C1111      C1119   1.385       .  A
C1112      C1126   1.404       .  A
C1112      C1120   1.384       .  A
C1113      C1121   1.384       .  A
C1113      C1124   1.409       .  A
C1114      C1122   1.385       .  A
C1114      C1125   1.410       .  A
C1115      C1508   1.373       .  A
C1115      H1127   1.080       .  S
C1116      C1507   1.373   1_545  A
C1116      H1128   1.080       .  S
C1117      C1510   1.373       .  A
C1117      H1129   1.080       .  S
C1118      C1509   1.373   1_545  A
C1118      H1130   1.080       .  S
C1119      C1120   1.379       .  A
C1119      H1131   1.082       .  S
C1120      H1132   1.082       .  S
C1121      C1122   1.381       .  A
C1121      H1133   1.082       .  S
C1122      H1134   1.082       .  S
C1123      C1173   1.480       .  S
C1124      C1157   1.491       .  S
C1125      C1149   1.486       .  S
C1126      C1165   1.485       .  S
C1137      C1530   1.423   1_545  A
C1137      C1142   1.407       .  A
C1138      C1529   1.423       .  A
C1138      C1139   1.402       .  A
C1139      C1140   1.395       .  A
C1139      H1144   1.086       .  S
C1140      C1533   1.412       .  A
C1141      C1532   1.412   1_545  A
C1141      C1142   1.398       .  A
C1142      H1143   1.085       .  S
C1145      C1146   1.424       .  A
C1145      C1150   1.408       .  A
C1146      C1147   1.408       .  A
C1147      C1148   1.392       .  A
C1147      H1152   1.085       .  S
C1148      C1149   1.409       .  A
C1149      C1150   1.399       .  A
C1150      H1151   1.085       .  S
C1153      C1154   1.423       .  A
C1153      C1158   1.408       .  A
C1154      C1155   1.403       .  A
C1155      C1156   1.396       .  A
C1155      H1160   1.086       .  S
C1156      C1157   1.412       .  A
C1157      C1158   1.399       .  A
C1158      H1159   1.085       .  S
C1161      C1166   1.408       .  A
C1162      C1163   1.407       .  A
C1163      C1164   1.399       .  A
C1163      H1168   1.085       .  S
C1165      C1166   1.392       .  A
C1166      H1167   1.085       .  S
C1169      C1174   1.403       .  A
C1170      C1171   1.409       .  A
C1171      C1172   1.399       .  A
C1171      H1176   1.085       .  S
C1173      C1174   1.396       .  A
C1174      H1175   1.086       .  S
O1177      C1193   1.272       .  A
O1177     Zn1183   1.984       .  S
C1178      O1194   1.272       .  A
C1178      O1191   1.275       .  A
C1178      C1358   1.483       .  S
O1179      C1192   1.275       .  A
O1179     Cd1186   2.104   1_556  S
O1180      C1198   1.282       .  A
O1180     Cd1189   2.091       .  S
O1181      C1195   1.281       .  A
O1181     Cd1185   2.089       .  S
O1182      C1193   1.275       .  A
O1182     Cd1185   2.104   1_556  S
Zn1183     O1194   1.988       .  S
Zn1183     O1196   1.987       .  S
Zn1183     O1188   1.890       .  S
O1184      C1195   1.273       .  A
O1184     Cd1189   2.074       .  S
Cd1185     O1187   2.077       .  S
Cd1185     O1188   2.022   1_554  S
Cd1186     O1190   2.089       .  S
Cd1186     O1199   2.075       .  S
Cd1186     O1188   2.022   1_554  S
O1187      C1197   1.274       .  A
O1188     Cd1189   2.022   1_556  S
Cd1189     O1191   2.106   1_554  S
O1190      C1197   1.281       .  A
C1192      O1196   1.272       .  A
C1192      C1342   1.482       .  S
C1193      C1365   1.481       .  S
C1195      C1529   1.476       .  S
C1197      C1562   1.477       .  S
C1198      O1199   1.274       .  A
C1198      C1545   1.478       .  S
O1200      C1216   1.272       .  A
O1200     Zn1206   1.988       .  S
C1201      O1217   1.272       .  A
C1201      O1214   1.275       .  A
C1201      C1349   1.484       .  S
O1202      C1215   1.275       .  A
O1202     Cd1209   2.106       .  S
O1203      C1221   1.274       .  A
O1203     Cd1212   2.076       .  S
O1204      C1218   1.274       .  A
O1204     Cd1208   2.077       .  S
O1205      C1216   1.276       .  A
O1205     Cd1208   2.110       .  S
Zn1206     O1217   1.989       .  S
Zn1206     O1219   1.985       .  S
Zn1206     O1211   1.889       .  S
O1207      C1218   1.282       .  A
O1207     Cd1212   2.093       .  S
Cd1208     O1210   2.096       .  S
Cd1208     O1211   2.023       .  S
Cd1209     O1213   2.077       .  S
Cd1209     O1222   2.092       .  S
Cd1209     O1211   2.024       .  S
O1210      C1220   1.283       .  A
O1211     Cd1212   2.024       .  S
Cd1212     O1214   2.108       .  S
O1213      C1220   1.274       .  A
C1215      O1219   1.272       .  A
C1215      C1333   1.483       .  S
C1216      C1326   1.485       .  S
C1218      C1554   1.479       .  S
C1220      C1487   1.481       .  S
C1221      O1222   1.282       .  A
C1221      C1537   1.479       .  S
N1223      H1255   1.040       .  S
N1223      C1227   1.349   1_545  A
N1224      C1231   1.348       .  A
N1224      C1232   1.350       .  A
N1225      H1256   1.040       .  S
N1225      C1229   1.351   1_545  A
N1226      C1233   1.346       .  A
N1226      C1234   1.345       .  A
C1227      C1235   1.387       .  A
C1227      C1243   1.413       .  A
C1228      C1244   1.412       .  A
C1228      C1236   1.386       .  A
C1229      C1237   1.386       .  A
C1229      C1246   1.412       .  A
C1230      C1245   1.412       .  A
C1230      C1238   1.387       .  A
C1231      C1243   1.410       .  A
C1231      C1239   1.385       .  A
C1232      C1246   1.410       .  A
C1232      C1240   1.384       .  A
C1233      C1241   1.384       .  A
C1233      C1244   1.404       .  A
C1234      C1242   1.385       .  A
C1234      C1245   1.404       .  A
C1235      H1247   1.080       .  S
C1236      H1248   1.080       .  S
C1237      H1249   1.080       .  S
C1238      H1250   1.080       .  S
C1239      C1240   1.381       .  A
C1239      H1251   1.082       .  S
C1240      H1252   1.082       .  S
C1241      C1242   1.379       .  A
C1241      H1253   1.082       .  S
C1242      H1254   1.082       .  S
C1243      C1352   1.486       .  S
C1244      C1328   1.486       .  S
C1245      C1369   1.480       .  S
C1246      C1345   1.491       .  S
N1257      H1289   1.040       .  S
N1257      C1262   1.350       .  A
N1257      C1261   1.350       .  A
N1258      C1265   1.349       .  A
N1258      C1266   1.348       .  A
N1259      H1290   1.040       .  S
N1259      C1264   1.351       .  A
N1259      C1263   1.350       .  A
N1260      C1267   1.345       .  A
N1260      C1268   1.346       .  A
C1261      C1269   1.386       .  A
C1261      C1277   1.412       .  A
C1262      C1278   1.412       .  A
C1262      C1270   1.386       .  A
C1263      C1271   1.387       .  A
C1263      C1280   1.413       .  A
C1264      C1279   1.413       .  A
C1264      C1272   1.386       .  A
C1265      C1277   1.410       .  A
C1265      C1273   1.384       .  A
C1266      C1280   1.410       .  A
C1266      C1274   1.385       .  A
C1267      C1275   1.385       .  A
C1267      C1278   1.404       .  A
C1268      C1276   1.384       .  A
C1268      C1279   1.403       .  A
C1269      C1270   1.372       .  A
C1269      H1281   1.080       .  S
C1270      H1282   1.080       .  S
C1271      C1272   1.373       .  A
C1271      H1283   1.080       .  S
C1272      H1284   1.080       .  S
C1273      C1274   1.381       .  A
C1273      H1285   1.082       .  S
C1274      H1286   1.082       .  S
C1275      C1276   1.379       .  A
C1275      H1287   1.082       .  S
C1276      H1288   1.082       .  S
C1277      C1368   1.490       .  S
C1278      C1360   1.480       .  S
C1279      C1337   1.484       .  S
C1280      C1329   1.487       .  S
N1291      C1295   1.349       .  A
N1292      C1299   1.344       .  A
N1292      C1300   1.346       .  A
N1293      H1324   1.039       .  S
N1293      C1298   1.349       .  A
N1294      C1301   1.350       .  A
N1294      C1302   1.348       .  A
C1295      C1303   1.387       .  A
C1295      C1311   1.412       .  A
C1296      C1312   1.412       .  A
C1296      C1304   1.386       .  A
C1297      C1305   1.385       .  A
C1297      C1314   1.412       .  A
C1298      C1313   1.412       .  A
C1298      C1306   1.387       .  A
C1299      C1311   1.404       .  A
C1299      C1307   1.385       .  A
C1300      C1314   1.403       .  A
C1300      C1308   1.384       .  A
C1301      C1309   1.384       .  A
C1301      C1312   1.409       .  A
C1302      C1310   1.385       .  A
C1302      C1313   1.410       .  A
C1303      H1315   1.080       .  S
C1304      H1316   1.080       .  S
C1305      H1317   1.080       .  S
C1306      H1318   1.080       .  S
C1307      C1308   1.379       .  A
C1307      H1319   1.082       .  S
C1308      H1320   1.082       .  S
C1309      C1310   1.381       .  A
C1309      H1321   1.082       .  S
C1310      H1322   1.082       .  S
C1311      C1344   1.478       .  S
C1312      C1361   1.491       .  S
C1313      C1336   1.484       .  S
C1314      C1353   1.486       .  S
C1325      C1393   1.480       .  S
C1325      C1330   1.409       .  A
C1326      C1327   1.409       .  A
C1327      C1328   1.393       .  A
C1327      H1332   1.085       .  S
C1329      C1330   1.400       .  A
C1330      H1331   1.085       .  S
C1333      C1338   1.408       .  A
C1334      C1391   1.479       .  S
C1334      C1335   1.407       .  A
C1335      C1336   1.398       .  A
C1335      H1340   1.085       .  S
C1337      C1338   1.391       .  A
C1338      H1339   1.085       .  S
C1341      C1397   1.479       .  S
C1341      C1342   1.422       .  A
C1341      C1346   1.412       .  A
C1342      C1343   1.407       .  A
C1343      C1344   1.394       .  A
C1343      H1348   1.086       .  S
C1344      C1345   1.408       .  A
C1345      C1346   1.396       .  A
C1346      H1347   1.085       .  S
C1349      C1350   1.424       .  A
C1349      C1354   1.409       .  A
C1350      C1394   1.480       .  S
C1350      C1351   1.408       .  A
C1351      C1352   1.400       .  A
C1351      H1356   1.085       .  S
C1352      C1353   1.410       .  A
C1353      C1354   1.392       .  A
C1354      H1355   1.085       .  S
C1357      C1412   1.480       .  S
C1357      C1362   1.413       .  A
C1358      C1359   1.407       .  A
C1359      C1360   1.394       .  A
C1359      H1364   1.086       .  S
C1361      C1362   1.397       .  A
C1362      H1363   1.085       .  S
C1365      C1370   1.407       .  A
C1366      C1411   1.479       .  S
C1366      C1367   1.412       .  A
C1367      C1368   1.397       .  A
C1367      H1372   1.085       .  S
C1369      C1370   1.394       .  A
C1370      H1371   1.086       .  S
O1373      C1389   1.272       .  A
O1373     Zn1379   1.984       .  S
C1374      O1390   1.272       .  A
C1374      O1387   1.275       .  A
C1374      C1488   1.484       .  S
O1375      C1388   1.275       .  A
O1375     Cd1382   2.106       .  S
O1376      C1394   1.282       .  A
O1376     Cd1385   2.094       .  S
O1377      C1391   1.282       .  A
O1377     Cd1381   2.093       .  S
O1378      C1389   1.275       .  A
O1378     Cd1381   2.106       .  S
Zn1379     O1390   1.988       .  S
Zn1379     O1392   1.987       .  S
Zn1379     O1384   1.888       .  S
O1380      C1391   1.274       .  A
O1380     Cd1385   2.074       .  S
Cd1381     O1383   2.078       .  S
Cd1381     O1384   2.023       .  S
Cd1382     O1386   2.093       .  S
Cd1382     O1395   2.077       .  S
Cd1382     O1384   2.023       .  S
O1383      C1393   1.274       .  A
O1384     Cd1385   2.023       .  S
Cd1385     O1387   2.107       .  S
O1386      C1393   1.282       .  A
C1388      O1392   1.272       .  A
C1388      C1538   1.484       .  S
C1389      C1553   1.483       .  S
C1394      O1395   1.274       .  A
O1396      C1412   1.270       .  A
O1396     Zn1402   1.977       .  S
C1397      O1413   1.269       .  A
C1397      O1410   1.275       .  A
O1398      C1411   1.275       .  A
O1398     Cd1405   2.106   1_556  S
O1399      C1417   1.275       .  A
O1399     Cd1408   2.084       .  S
O1400      C1414   1.274       .  A
O1400     Cd1404   2.080       .  S
O1401      C1412   1.275       .  A
O1401     Cd1404   2.108   1_556  S
Zn1402     O1413   1.972       .  S
Zn1402     O1415   1.974       .  S
Zn1402     O1407   1.891   1_556  S
O1403      C1414   1.283       .  A
O1403     Cd1408   2.094       .  S
Cd1404     O1406   2.095       .  S
Cd1404     O1407   2.023       .  S
Cd1405     O1409   2.084       .  S
Cd1405     O1418   2.094       .  S
Cd1405     O1407   2.023       .  S
O1406      C1416   1.283       .  A
O1407     Cd1408   2.024       .  S
Cd1408     O1410   2.107   1_554  S
O1409      C1416   1.275       .  A
C1411      O1415   1.270       .  A
C1414      C1530   1.479       .  S
C1416      C1561   1.481       .  S
C1417      O1418   1.282       .  A
C1417      C1546   1.480       .  S
N1419      C1424   1.351       .  A
N1420      C1427   1.348       .  A
N1420      C1428   1.349       .  A
N1421      H1452   1.039       .  S
N1421      C1425   1.351   1_455  A
N1422      C1429   1.346       .  A
N1422      C1430   1.345       .  A
C1423      C1431   1.387       .  A
C1423      C1439   1.412       .  A
C1424      C1440   1.412       .  A
C1424      C1432   1.386       .  A
C1425      C1433   1.386       .  A
C1425      C1442   1.413       .  A
C1426      C1441   1.412       .  A
C1426      C1434   1.386       .  A
C1427      C1439   1.409       .  A
C1427      C1435   1.385       .  A
C1428      C1442   1.409       .  A
C1428      C1436   1.384       .  A
C1429      C1437   1.384       .  A
C1429      C1440   1.403       .  A
C1430      C1438   1.385       .  A
C1430      C1441   1.404       .  A
C1431      H1443   1.080       .  S
C1432      H1444   1.080       .  S
C1433      H1445   1.080       .  S
C1434      H1446   1.080       .  S
C1435      C1436   1.381       .  A
C1435      H1447   1.082       .  S
C1436      H1448   1.082       .  S
C1437      C1438   1.379       .  A
C1437      H1449   1.082       .  S
C1438      H1450   1.082       .  S
C1439      C1491   1.485       .  S
C1440      C1540   1.483       .  S
C1441      C1548   1.481       .  S
C1442      C1533   1.489       .  S
N1453      H1485   1.039       .  S
N1453      C1458   1.349       .  A
N1453      C1457   1.352       .  A
N1454      C1461   1.346       .  A
N1454      C1462   1.344       .  A
N1455      H1486   1.039       .  S
N1455      C1460   1.352       .  A
N1455      C1459   1.350       .  A
N1456      C1463   1.348       .  A
N1456      C1464   1.350       .  A
C1457      C1465   1.385       .  A
C1457      C1473   1.412       .  A
C1458      C1474   1.412       .  A
C1458      C1466   1.387       .  A
C1459      C1467   1.387       .  A
C1459      C1476   1.413       .  A
C1460      C1475   1.413       .  A
C1460      C1468   1.386       .  A
C1461      C1473   1.403       .  A
C1461      C1469   1.384       .  A
C1462      C1476   1.404       .  A
C1462      C1470   1.386       .  A
C1463      C1471   1.385       .  A
C1463      C1474   1.410       .  A
C1464      C1472   1.384       .  A
C1464      C1475   1.410       .  A
C1465      C1466   1.372       .  A
C1465      H1477   1.080       .  S
C1466      H1478   1.080       .  S
C1467      C1468   1.373       .  A
C1467      H1479   1.080       .  S
C1468      H1480   1.080       .  S
C1469      C1470   1.379       .  A
C1469      H1481   1.082       .  S
C1470      H1482   1.082       .  S
C1471      C1472   1.381       .  A
C1471      H1483   1.082       .  S
C1472      H1484   1.082       .  S
C1473      C1490   1.486       .  S
C1474      C1556   1.484       .  S
C1475      C1564   1.492       .  S
C1476      C1532   1.479       .  S
C1487      C1492   1.408       .  A
C1488      C1489   1.409       .  A
C1489      C1490   1.392       .  A
C1489      H1494   1.085       .  S
C1491      C1492   1.400       .  A
C1492      H1493   1.085       .  S
N1495      H1527   1.040       .  S
N1495      C1500   1.351       .  A
N1496      C1503   1.345       .  A
N1496      C1504   1.346       .  A
N1497      H1528   1.039       .  S
N1497      C1502   1.350       .  A
N1498      C1505   1.349       .  A
N1498      C1506   1.348       .  A
C1499      C1507   1.386       .  A
C1499      C1515   1.412       .  A
C1500      C1516   1.413       .  A
C1500      C1508   1.386       .  A
C1501      C1509   1.386       .  A
C1501      C1518   1.412       .  A
C1502      C1517   1.413       .  A
C1502      C1510   1.387       .  A
C1503      C1515   1.404       .  A
C1503      C1511   1.385       .  A
C1504      C1518   1.404       .  A
C1504      C1512   1.384       .  A
C1505      C1513   1.384       .  A
C1505      C1516   1.409       .  A
C1506      C1514   1.385       .  A
C1506      C1517   1.410       .  A
C1507      H1519   1.080       .  S
C1508      H1520   1.080       .  S
C1509      H1521   1.080       .  S
C1510      H1522   1.080       .  S
C1511      C1512   1.379       .  A
C1511      H1523   1.082       .  S
C1512      H1524   1.082       .  S
C1513      C1514   1.381       .  A
C1513      H1525   1.082       .  S
C1514      H1526   1.082       .  S
C1515      C1565   1.480       .  S
C1516      C1549   1.491       .  S
C1517      C1541   1.486       .  S
C1518      C1557   1.485       .  S
C1529      C1534   1.407       .  A
C1530      C1531   1.402       .  A
C1531      C1532   1.395       .  A
C1531      H1536   1.086       .  S
C1533      C1534   1.398       .  A
C1534      H1535   1.085       .  S
C1537      C1538   1.424       .  A
C1537      C1542   1.408       .  A
C1538      C1539   1.408       .  A
C1539      C1540   1.392       .  A
C1539      H1544   1.085       .  S
C1540      C1541   1.409       .  A
C1541      C1542   1.399       .  A
C1542      H1543   1.085       .  S
C1545      C1546   1.423       .  A
C1545      C1550   1.408       .  A
C1546      C1547   1.403       .  A
C1547      C1548   1.396       .  A
C1547      H1552   1.086       .  S
C1548      C1549   1.412       .  A
C1549      C1550   1.399       .  A
C1550      H1551   1.085       .  S
C1553      C1558   1.408       .  A
C1554      C1555   1.407       .  A
C1555      C1556   1.399       .  A
C1555      H1560   1.085       .  S
C1557      C1558   1.392       .  A
C1558      H1559   1.085       .  S
C1561      C1566   1.403       .  A
C1562      C1563   1.409       .  A
C1563      C1564   1.399       .  A
C1563      H1568   1.085       .  S
C1565      C1566   1.396       .  A
C1566      H1567   1.086       .  S
