geometry optimzed in LAMMPS
_audit_creation_date              2020-11-30 
_audit_creation_method            'lammps2cif' 
_symmetry_space_group_name_H-M    'P1' 
_symmetry_Int_Tables_number       1 
_symmetry_cell_setting            triclinic 
loop_ 
_symmetry_equiv_pos_as_xyz 
  x,y,z 
_cell_length_a                    24.33378468 
_cell_length_b                    24.946858443136776 
_cell_length_c                    24.153274753420757 
_cell_angle_alpha                 89.84076402159998 
_cell_angle_beta                  90.27363448596071 
_cell_angle_gamma                 88.80073337331571 
loop_ 
_atom_site_label 
_atom_site_type_symbol 
_atom_site_fract_x 
_atom_site_fract_y 
_atom_site_fract_z 
_atom_site_charge 
C1          C  0.82873662  0.90301998  0.92096870     0.85400
C2          C  0.86922478  0.92471286  0.87861306    -0.54800
C3          C  0.89355818  0.88650031  0.84616855     0.08300
C4          C  0.87633228  0.82912713  0.86008719     0.19300
C5          C  0.78869150  0.86972067  0.88712251    -0.55600
C6          C  0.81315146  0.83226559  0.85400314     0.08400
C7          C  0.86249122  0.86142529  0.95453835    -0.55100
C8          C  0.88757748  0.82234192  0.92318395     0.09000
H9          H  0.87616906  0.96728196  0.87300609     0.13500
H10         H  0.89614450  0.79834510  0.83329863    -0.00700
H11         H  0.74451071  0.87700101  0.88752824     0.13800
H12         H  0.86812178  0.86322155  0.99887931     0.13600
O13         O  0.83848386  0.90229416  0.48648496    -0.81200
O14         O  0.83644983  0.80529933  0.25730848    -0.81300
O15         O  0.82259417  0.98317472  0.33016263    -0.81300
O16         O  0.78868879  0.77499659  0.43645722    -0.81200
O17         O  0.80627126  0.90650195  0.28888785    -0.81300
O18         O  0.84992065  0.79336906  0.50013665    -0.81200
O19         O  0.78354923  0.78857310  0.32686799    -0.81200
O20         O  0.78607310  0.91426189  0.41183923    -0.81300
C21         C  0.79420969  0.91990106  0.46346783     1.08500
C22         C  0.79171676  0.78716300  0.27569080     1.08300
C23         C  0.79781137  0.95770914  0.29273315     1.08500
C24         C  0.80433488  0.77303268  0.48617233     1.08400
O25         O  0.95443393  0.79760508  0.44145508    -0.81200
O26         O  0.90390786  0.89348646  0.23623433    -0.88500
O27         O  0.88760457  0.96578970  0.42021145    -0.81200
O28         O  0.89597123  0.74174670  0.31668576    -0.81200
O29         O  0.94519999  0.81386408  0.30324251    -0.81300
O30         O  0.94884615  0.90459126  0.43869192    -0.81200
O31         O  0.89881345  0.73035988  0.42964690    -0.81200
O32         O  0.92048381  0.93226691  0.31670019    -0.81300
Co33       Co  0.89700948  0.84916698  0.46157285     1.51500
Co34       Co  0.87832062  0.86014815  0.30222324     1.51700
Co35       Co  0.85068480  0.91872396  0.36369640     1.51600
Co36       Co  0.84230522  0.76396688  0.37715920     1.51500
O37         O  0.86700149  0.84132717  0.38340866    -1.43200
C38         C  0.94481329  0.74852619  0.44546744     1.08400
C39         C  0.92848592  0.92915713  0.26390059     1.08500
C40         C  0.93267099  0.95254357  0.44294431     1.08400
C41         C  0.93897267  0.76383270  0.29800752     1.08400
O42         O  0.93041844  0.45468110  0.93415922    -0.81200
O43         O  0.88429503  0.25393957  0.81181122    -0.81300
O44         O  0.95758026  0.33285511  0.93146498    -0.81300
O45         O  0.94752814  0.42144972  0.80997943    -0.81200
O46         O  0.90407191  0.26229782  0.92145501    -0.81300
O47         O  0.89260183  0.48655443  0.83493065    -0.81200
O48         O  0.94471648  0.31500277  0.79116485    -0.81200
O49         O  0.92594606  0.40697276  0.01067259    -0.81300
C50         C  0.94538476  0.44626439  0.98491288     1.08500
C51         C  0.92942094  0.26703383  0.78955617     1.08300
C52         C  0.95048878  0.28250321  0.93351701     1.08500
C53         C  0.93636333  0.47073958  0.81132502     1.08400
O54         O  0.78745175  0.43735751  0.84975921    -0.81200
O55         O  0.79365189  0.30811601  0.93876353    -0.81300
O56         O  0.82261749  0.42423760  0.97036018    -0.81200
O57         O  0.83195022  0.32521055  0.75406332    -0.81200
O58         O  0.77844447  0.30691627  0.82480478    -0.81300
O59         O  0.82971543  0.50280380  0.92848168    -0.81200
O60         O  0.83328562  0.43336136  0.77127103    -0.81200
O61         O  0.86210134  0.32277658  0.99408968    -0.81300
Co62       Co  0.85628943  0.44018335  0.89207034     1.51500
Co63       Co  0.84050915  0.28809582  0.87440606     1.51700
Co64       Co  0.89279582  0.37949018  0.94558034     1.51600
Co65       Co  0.88930632  0.37364089  0.78670672     1.51500
O66         O  0.86945895  0.36360518  0.86759440    -1.43200
C67         C  0.79085042  0.44777943  0.79871825     1.08400
C68         C  0.81539118  0.30345567  0.98621545     1.08500
C69         C  0.80845804  0.47453062  0.96614522     1.08400
C70         C  0.78732128  0.30679720  0.77319991     1.08400
O71         O  0.31792153  0.93201045  0.98719671    -0.81200
O72         O  0.33639125  0.82716939  0.79001783    -0.81300
O73         O  0.31242309  0.96337216  0.84576615    -0.81300
O74         O  0.30115440  0.81026604  0.90345187    -0.81200
O75         O  0.34201663  0.92758636  0.77041029    -0.81300
O76         O  0.32567370  0.82198644  0.99035384    -0.81200
O77         O  0.36106523  0.75070638  0.83265610    -0.81200
O78         O  0.35535538  0.99950442  0.94194310    -0.81300
C79         C  0.32141636  0.98167659  0.97729045     1.08500
C80         C  0.33254276  0.77572977  0.79613809     1.08300
C81         C  0.30667131  0.95576494  0.79429267     1.08500
C82         C  0.29310296  0.80304651  0.95456427     1.08400
O83         O  0.44334058  0.83059155  0.98834660    -0.81200
O84         O  0.44547323  0.94329060  0.79897271    -0.81300
O85         O  0.46332602  0.95801008  0.91452010    -0.81200
O86         O  0.45628182  0.80306195  0.85091366    -0.81200
O87         O  0.43956023  0.83826050  0.77177485    -0.81300
O88         O  0.43296149  0.93948668  0.99799818    -0.81200
O89         O  0.40502754  0.76683742  0.93935484    -0.81200
O90         O  0.41047128  0.01825676  0.83711855    -0.81300
Co91       Co  0.38022215  0.88098440  0.98603877     1.51500
Co92       Co  0.39075514  0.88412693  0.81637110     1.51700
Co93       Co  0.38905353  0.95715965  0.87915536     1.51600
Co94       Co  0.37762703  0.81118358  0.87584126     1.51500
O95         O  0.38337806  0.88340995  0.90277564    -1.43200
C96         C  0.44125172  0.78214643  0.97356078     1.08400
C97         C  0.44485521  0.99492756  0.80482860     1.08500
C98         C  0.46755241  0.96123847  0.96662573     1.08400
C99         C  0.46582298  0.80430919  0.79959363     1.08400
C100        C  0.33431591  0.29943579  0.81617685     0.85400
C101        C  0.37520259  0.27257500  0.85602331    -0.54800
C102        C  0.40483755  0.30743740  0.88683890     0.08300
C103        C  0.38964408  0.36672419  0.87636657     0.19300
C104        C  0.29850875  0.33635843  0.85200454    -0.55600
C105        C  0.32669905  0.37067089  0.88483841     0.08400
C106        C  0.36967089  0.33796953  0.78185708    -0.55100
C107        C  0.39886052  0.37306147  0.81349769     0.09000
H108        H  0.38112709  0.22933202  0.85860966     0.13500
H109        H  0.41379214  0.39461384  0.90211292    -0.00700
H110        H  0.25394663  0.33467479  0.85158322     0.13800
H111        H  0.37313894  0.33753248  0.73721429     0.13600
C112        C  0.38700145  0.90725801  0.31612403     0.85400
C113        C  0.33858253  0.93176924  0.34801678    -0.54800
C114        C  0.31523101  0.89783584  0.38461695     0.08300
C115        C  0.34278126  0.84135690  0.38640338     0.19300
C116        C  0.42668040  0.88695278  0.36154749    -0.55600
C117        C  0.40433289  0.85188799  0.39818981     0.08400
C118        C  0.36473042  0.85707413  0.28940478    -0.55100
C119        C  0.34137982  0.82194911  0.32535376     0.09000
H120        H  0.32549001  0.97348445  0.34586052     0.13500
H121        H  0.32366499  0.81390791  0.41658134    -0.00700
H122        H  0.46968026  0.89768449  0.36284154     0.13800
H123        H  0.36513617  0.85170905  0.24481798     0.13600
C124        C  0.90510312  0.40028730  0.33080303     0.85400
C125        C  0.87157286  0.43403272  0.37325370    -0.54800
C126        C  0.83952303  0.40389738  0.40763129     0.08300
C127        C  0.84497691  0.34329158  0.39725639     0.19300
C128        C  0.93788786  0.35976813  0.36593920    -0.55600
C129        C  0.90671650  0.32973871  0.40014455     0.08400
C130        C  0.86148819  0.36747731  0.30125225    -0.55100
C131        C  0.82969772  0.33810482  0.33584723     0.09000
H132        H  0.87037166  0.47736269  0.37489857     0.13500
H133        H  0.81965992  0.31844947  0.42500884    -0.00700
H134        H  0.98212401  0.35380925  0.36254566     0.13800
H135        H  0.85622161  0.36774293  0.25655777     0.13600
O136        O  0.12891072  0.03912778  0.75088849    -0.81200
O137        O  0.16349954  0.15062756  0.54092363    -0.81300
O138        O  0.18943266  0.03228995  0.57436233    -0.81300
O139        O  0.18502351  0.15014290  0.65892308    -0.81200
O140        O  0.13262318  0.04933954  0.50747180    -0.81300
O141        O  0.13709115  0.14619264  0.73606340    -0.81200
O142        O  0.14712020  0.22566626  0.58639176    -0.81200
O143        O  0.18925691  0.02515102  0.68527719    -0.81300
C144        C  0.17687608  0.02522740  0.73590844     1.08500
C145        C  0.17425801  0.20058581  0.55009657     1.08300
C146        C  0.17667022  0.02685939  0.52434578     1.08500
C147        C  0.18119370  0.15777987  0.71025169     1.08400
O148        O  0.02199170  0.14848378  0.69379964    -0.81200
O149        O  0.02727845  0.05806814  0.55301223    -0.81300
O150        O  0.08267935  0.97478710  0.68251692    -0.81200
O151        O  0.04795008  0.17800149  0.56819243    -0.81200
O152        O  0.06573431  0.13846311  0.48802430    -0.81300
O153        O  0.02215902  0.03992476  0.69883747    -0.81200
O154        O  0.08241305  0.20729684  0.67303568    -0.81200
O155        O  0.07940265  0.98573327  0.57035074    -0.81300
Co156      Co  0.07787864  0.09334427  0.71435702     1.51500
Co157      Co  0.09218284  0.10478159  0.55336653     1.51700
Co158      Co  0.13449900  0.00912539  0.62822519     1.51600
Co159      Co  0.11867168  0.16065189  0.61478991     1.51500
O160        O  0.10315035  0.08456499  0.63413750    -1.43200
C161        C  0.03707719  0.19627815  0.69518684     1.08400
C162        C  0.03607792  0.00773972  0.54949903     1.08500
C163        C  0.03521028  0.99064061  0.69832964     1.08400
C164        C  0.03890286  0.17346902  0.51551967     1.08400
O165        O  0.04942055  0.67677740  0.08385748    -0.81200
O166        O  0.08484495  0.47689418  0.14244573    -0.81300
O167        O  0.09601495  0.56737602  0.99430821    -0.81300
O168        O  0.05451579  0.66702773  0.19850845    -0.81200
O169        O  0.05075974  0.55583106  0.07058192    -0.81300
O170        O  0.08725171  0.74287161  0.16472046    -0.81200
O171        O  0.05097921  0.55395079  0.17359031    -0.81200
O172        O  0.09513047  0.67571260  0.00614768    -0.81300
C173        C  0.05131282  0.68628621  0.03236044     1.08500
C174        C  0.05158801  0.50237207  0.17429319     1.08300
C175        C  0.05356378  0.55135254  0.01891399     1.08500
C176        C  0.05438440  0.71908556  0.19657921     1.08400
O177        O  0.18993796  0.69630203  0.16456322    -0.81200
O178        O  0.15417715  0.49910138  0.04641972    -0.81300
O179        O  0.20970163  0.67340843  0.03393470    -0.81200
O180        O  0.16077488  0.54137794  0.22070819    -0.81200
O181        O  0.19143115  0.51646456  0.14200516    -0.81300
O182        O  0.15282107  0.73257540  0.07112063    -0.81200
O183        O  0.16740502  0.64697645  0.23379785    -0.81200
O184        O  0.21117905  0.56295954  0.02507144    -0.81300
Co185      Co  0.11923371  0.68339175  0.12693752     1.51500
Co186      Co  0.12000469  0.53874280  0.11077726     1.51700
Co187      Co  0.15288886  0.61931164  0.02164923     1.51600
Co188      Co  0.11217367  0.60355990  0.19466950     1.51500
O189        O  0.14443589  0.61202424  0.10760510    -1.43200
C190        C  0.19824847  0.68113078  0.21333767     1.08400
C191        C  0.19860278  0.51400564  0.02376511     1.08500
C192        C  0.19631011  0.72161086  0.04425939     1.08400
C193        C  0.19510147  0.51431433  0.19307994     1.08400
O194        O  0.66387119  0.09549112  0.00018008    -0.81200
O195        O  0.56570565  0.04404531  0.19813706    -0.81300
O196        O  0.73500143  0.11295955  0.18583118    -0.81300
O197        O  0.51062180  0.10530735  0.07778412    -0.81200
O198        O  0.67674135  0.04953229  0.19870774    -0.81300
O199        O  0.58553547  0.05398322  0.06751995    -0.81200
O200        O  0.49798732  0.10308669  0.18633415    -0.81200
O201        O  0.70952815  0.08530634  0.07942879    -0.81300
C202        C  0.70266054  0.07340714  0.02767796     1.08500
C203        C  0.51505301  0.05540010  0.19611331     1.08300
C204        C  0.72476950  0.06657689  0.20408063     1.08500
C205        C  0.53388899  0.06107430  0.06360862     1.08400
O206        O  0.57411588  0.15778948  0.02061013    -0.81200
O207        O  0.66675519  0.15519368  0.25147632    -0.81300
O208        O  0.74982558  0.18553357  0.10016457    -0.81200
O209        O  0.54590117  0.20844759  0.19738638    -0.81200
O210        O  0.55629040  0.14394236  0.25890892    -0.81300
O211        O  0.67181675  0.18982071  0.05293865    -0.81200
O212        O  0.55512148  0.21482792  0.08561815    -0.81200
O213        O  0.67282537  0.21069030  0.17991282    -0.81300
Co214      Co  0.63039633  0.11855650  0.06625876     1.51500
Co215      Co  0.61640572  0.09860229  0.22214449     1.51700
Co216      Co  0.68668138  0.15100693  0.12920802     1.51600
Co217      Co  0.53210062  0.15811871  0.13700645     1.51500
O218        O  0.60982766  0.13020745  0.14512351    -1.43200
C219        C  0.55447447  0.20286100  0.03511324     1.08400
C220        C  0.67812059  0.20102685  0.23126535     1.08500
C221        C  0.72110862  0.20590230  0.06112936     1.08400
C222        C  0.54043301  0.19135084  0.24607782     1.08400
C223        C  0.57035749  0.57452116  0.18162694     0.85400
C224        C  0.60509572  0.61715887  0.21018290    -0.54800
C225        C  0.63722506  0.64599605  0.17500024     0.08300
C226        C  0.63111723  0.62983625  0.11403819     0.19300
C227        C  0.53773730  0.60498495  0.13681030    -0.55600
C228        C  0.56923061  0.63426270  0.10205273     0.08400
C229        C  0.61222808  0.54021344  0.14801162    -0.55100
C230        C  0.64420061  0.56913054  0.11252957     0.09000
H231        H  0.60482147  0.62320619  0.25468719     0.13500
H232        H  0.65605242  0.65445613  0.08576059    -0.00700
H233        H  0.49318204  0.60485440  0.13370763     0.13800
H234        H  0.61448980  0.49686004  0.14929508     0.13600
C235        C  0.16021238  0.66488044  0.68067644     0.85400
C236        C  0.11859438  0.63868943  0.71898729    -0.54800
C237        C  0.08362392  0.60549158  0.69231422     0.08300
C238        C  0.09293426  0.60173191  0.62938227     0.19300
C239        C  0.18849662  0.61867858  0.64957238    -0.55600
C240        C  0.15356387  0.58617294  0.62231713     0.08400
C241        C  0.12450413  0.69343769  0.63596967    -0.55100
C242        C  0.08948845  0.65987488  0.60901096     0.09000
H243        H  0.11813356  0.64442302  0.76356353     0.13500
H244        H  0.06494017  0.57427513  0.60740911    -0.00700
H245        H  0.23286542  0.61511476  0.64500655     0.13800
H246        H  0.12600201  0.73557814  0.62567009     0.13600
O247        O  0.42944481  0.32855820  0.46122644    -0.81200
O248        O  0.43041347  0.40692571  0.32704866    -0.81300
O249        O  0.37360967  0.23804689  0.34162375    -0.81300
O250        O  0.40100294  0.44858873  0.44005019    -0.81200
O251        O  0.43267888  0.30074206  0.32254833    -0.81300
O252        O  0.39156392  0.41441405  0.52391172    -0.81200
O253        O  0.37129471  0.47173689  0.33625451    -0.81200
O254        O  0.37845346  0.25623060  0.45193047    -0.81300
C255        C  0.42304805  0.27845762  0.46683938     1.08500
C256        C  0.41843644  0.45550387  0.32035116     1.08300
C257        C  0.42123663  0.25186635  0.32626835     1.08500
C258        C  0.41238425  0.44926957  0.49210373     1.08400
O259        O  0.29137493  0.42031310  0.47251964    -0.81200
O260        O  0.32483897  0.30105309  0.27040872    -0.81300
O261        O  0.26671077  0.30316103  0.44694105    -0.81200
O262        O  0.26587947  0.41902875  0.35026211    -0.81200
O263        O  0.31808590  0.41025327  0.27648966    -0.81300
O264        O  0.32409564  0.32311299  0.51222660    -0.81200
O265        O  0.30056451  0.49432473  0.42305612    -0.81200
O266        O  0.26529100  0.29075262  0.33740311    -0.81300
Co267      Co  0.36342112  0.37518734  0.46159403     1.51500
Co268      Co  0.37608832  0.35495113  0.30380823     1.51700
Co269      Co  0.32138818  0.27663308  0.39409338     1.51600
Co270      Co  0.33127863  0.42915763  0.39569936     1.51500
O271        O  0.34927803  0.35142890  0.38291864    -1.43200
C272        C  0.27798940  0.46978371  0.46269976     1.08400
C273        C  0.27713591  0.28874613  0.28679990     1.08500
C274        C  0.27953107  0.30165828  0.49725385     1.08400
C275        C  0.27274621  0.42530540  0.29907137     1.08400
O276        O  0.55939469  0.67583383  0.72963875    -0.81200
O277        O  0.52533236  0.57235775  0.55036620    -0.81300
O278        O  0.59016148  0.75092882  0.57125489    -0.81300
O279        O  0.60100071  0.49844718  0.69231013    -0.81200
O280        O  0.55100119  0.67837655  0.53592050    -0.81300
O281        O  0.55158965  0.56531581  0.72679942    -0.81200
O282        O  0.55709153  0.50901522  0.60297188    -0.81200
O283        O  0.53099237  0.69575428  0.64566679    -0.81300
C284        C  0.52761426  0.70200723  0.69747048     1.08500
C285        C  0.51939352  0.52777252  0.57327673     1.08300
C286        C  0.55486289  0.73002330  0.53904756     1.08500
C287        C  0.55968311  0.51546839  0.72037851     1.08400
O288        O  0.66926852  0.55646690  0.73359342    -0.81200
O289        O  0.66542505  0.64392523  0.51959597    -0.81300
O290        O  0.63662291  0.73144277  0.67874603    -0.81200
O291        O  0.65837945  0.47134131  0.59436745    -0.81200
O292        O  0.64448607  0.53792160  0.53368848    -0.81300
O293        O  0.67606234  0.66211569  0.71912090    -0.81200
O294        O  0.70461849  0.55115711  0.65143075    -0.81200
O295        O  0.68439487  0.69099751  0.59127484    -0.81300
Co296      Co  0.61285715  0.61487164  0.72080675     1.51500
Co297      Co  0.59713477  0.60823031  0.54534043     1.51700
Co298      Co  0.60676173  0.68864697  0.61529128     1.51600
Co299      Co  0.63023432  0.53606324  0.62372520     1.51500
O300        O  0.60794446  0.61165285  0.63548115    -1.43200
C301        C  0.70837283  0.54184520  0.70245283     1.08400
C302        C  0.69642688  0.67629529  0.54343067     1.08500
C303        C  0.67331801  0.71182641  0.71079388     1.08400
C304        C  0.66663111  0.49165439  0.54687413     1.08400
C305        C  0.66147191  0.07938569  0.58033961     0.85400
C306        C  0.61760453  0.11082247  0.54688337    -0.54800
C307        C  0.58737419  0.14651860  0.57732499     0.08300
C308        C  0.60399210  0.14829886  0.63887403     0.19300
C309        C  0.69596621  0.12341985  0.60731379    -0.55600
C310        C  0.66604712  0.15943874  0.63836372     0.08400
C311        C  0.63009301  0.05428770  0.62812634    -0.55100
C312        C  0.59993386  0.08981563  0.65908543     0.09000
H313        H  0.61180176  0.10780432  0.50255245     0.13500
H314        H  0.57947023  0.17768722  0.66336046    -0.00700
H315        H  0.74031976  0.12505278  0.60327528     0.13800
H316        H  0.63034341  0.01126937  0.63520376     0.13600
C317        C  0.07030446  0.08423734  0.15640219     0.85400
C318        C  0.09513227  0.13027548  0.19043843    -0.54800
C319        C  0.12795981  0.16347239  0.16038542     0.08300
C320        C  0.13238485  0.14810176  0.09898197     0.19300
C321        C  0.04054893  0.11254432  0.10810535    -0.55600
C322        C  0.07291410  0.14595054  0.07817922     0.08400
C323        C  0.12054687  0.05640772  0.13016464    -0.55100
C324        C  0.15284261  0.08958708  0.09988972     0.09000
H325        H  0.09110677  0.13464337  0.23474997     0.13500
H326        H  0.15839568  0.17496186  0.07404665    -0.00700
H327        H  0.99717678  0.10741748  0.09918869     0.13800
H328        H  0.12919309  0.01369130  0.13440030     0.13600
C329        C  0.25289515  0.24354937  0.19803929    -0.14400
C330        C  0.23629226  0.26667556  0.24825388     0.07700
C331        C  0.18126282  0.26234558  0.26489962    -0.14400
C332        C  0.14475564  0.23171211  0.23429392    -0.14400
C333        C  0.16269022  0.20454511  0.18665002     0.07700
C334        C  0.21644340  0.21252485  0.16759636    -0.14400
H335        H  0.29504265  0.24626098  0.18427227     0.11700
H336        H  0.16707444  0.28057924  0.30304309     0.11700
H337        H  0.10317466  0.22747752  0.24921387     0.11700
H338        H  0.23178602  0.19183672  0.13133361     0.11700
C339        C  0.46867769  0.18994467  0.48536310    -0.14400
C340        C  0.46586960  0.24539801  0.49478978     0.07700
C341        C  0.50209077  0.26808673  0.53332903    -0.14400
C342        C  0.54043384  0.23566950  0.56196480    -0.14400
C343        C  0.54377172  0.18044024  0.55152409     0.07700
C344        C  0.50746956  0.15786337  0.51316849    -0.14400
H345        H  0.44110913  0.17141340  0.45609519     0.11700
H346        H  0.50021777  0.31068509  0.54186166     0.11700
H347        H  0.56839164  0.25387035  0.59107026     0.11700
H348        H  0.50916134  0.11524164  0.50470264     0.11700
C349        C  0.45142940  0.49011819  0.51094124    -0.17500
C350        C  0.47122138  0.49407760  0.56254332    -0.32700
H351        H  0.46717262  0.51659639  0.47923414     0.11500
H352        H  0.45881091  0.46570880  0.59399436     0.12100
C353        C  0.18562640  0.49869604  0.58442946    -0.14400
C354        C  0.17418229  0.55326189  0.57654285     0.07700
C355        C  0.19099225  0.57883333  0.52789713    -0.14400
C356        C  0.22227994  0.55085638  0.48890918    -0.14400
C357        C  0.23705456  0.49691740  0.49821876     0.07700
C358        C  0.21669999  0.47050198  0.54527979    -0.14400
H359        H  0.17323981  0.47881161  0.62215873     0.11700
H360        H  0.18260756  0.62127928  0.52177091     0.11700
H361        H  0.23717241  0.57212312  0.45301212     0.11700
H362        H  0.22730127  0.42883408  0.55343756     0.11700
C363        C  0.54534215  0.49288492  0.24038192    -0.14400
C364        C  0.53293960  0.54523058  0.22213072     0.07700
C365        C  0.48466855  0.57069710  0.24276426    -0.14400
C366        C  0.44742633  0.54272533  0.27590390    -0.14400
C367        C  0.45865885  0.48924428  0.29081256     0.07700
C368        C  0.50887922  0.46547183  0.27396678    -0.14400
H369        H  0.58325724  0.47250568  0.22932258     0.11700
H370        H  0.47479592  0.61188116  0.23171801     0.11700
H371        H  0.40956861  0.56247164  0.28878910     0.11700
H372        H  0.51982090  0.42468862  0.28573631     0.11700
C373        C  0.51020341  0.22597113  0.28504757    -0.17500
C374        C  0.46204529  0.21110518  0.30708952    -0.32700
H375        H  0.52081783  0.26807432  0.28485421     0.11500
H376        H  0.44954684  0.16961419  0.30410500     0.12100
C377        C  0.23754713  0.47903188  0.21916984    -0.17500
C378        C  0.22971690  0.45645121  0.26886313    -0.32700
H379        H  0.27500964  0.47026257  0.19639917     0.11500
H380        H  0.19145392  0.46475894  0.29050910     0.12100
C381        C  0.21752926  0.22785451  0.51831197    -0.17500
C382        C  0.24352323  0.27232369  0.53584552    -0.32700
H383        H  0.22737307  0.21136397  0.47787347     0.11500
H384        H  0.23767712  0.28720825  0.57764806     0.12100
C385        C  0.75213175  0.32521921  0.27007363    -0.14400
C386        C  0.78336366  0.30661925  0.31548198     0.07700
C387        C  0.77203361  0.25671131  0.33909870    -0.14400
C388        C  0.73335329  0.22377991  0.31447664    -0.14400
C389        C  0.70600540  0.24040823  0.26580905     0.07700
C390        C  0.71384450  0.29230166  0.24530951    -0.14400
H391        H  0.75879449  0.36446136  0.25235170     0.11700
H392        H  0.79550089  0.24163443  0.37422956     0.11700
H393        H  0.72806593  0.18384020  0.33105468     0.11700
H394        H  0.69271245  0.30631302  0.20826289     0.11700
C395        C  0.97178699  0.39654593  0.25076392    -0.14400
C396        C  0.94180153  0.42812567  0.28923560     0.07700
C397        C  0.94732354  0.48392303  0.28749505    -0.14400
C398        C  0.98191096  0.50725593  0.24897584    -0.14400
C399        C  0.01232597  0.47570579  0.21121049     0.07700
C400        C  0.00686473  0.42001319  0.21231574    -0.14400
H401        H  0.96835097  0.35331899  0.25096866     0.11700
H402        H  0.92576696  0.51023906  0.31566732     0.11700
H403        H  0.98552312  0.55045290  0.24968621     0.11700
H404        H  0.02996817  0.39469785  0.18403359     0.11700
C405        C  0.93594154  0.28672668  0.48909576    -0.14400
C406        C  0.93128246  0.28460012  0.43136867     0.07700
C407        C  0.95722050  0.24276446  0.40225784    -0.14400
C408        C  0.98993042  0.20488561  0.43014639    -0.14400
C409        C  0.99774799  0.20863430  0.48763758     0.07700
C410        C  0.96920141  0.24899033  0.51715986    -0.14400
H411        H  0.91647520  0.31919755  0.51192452     0.11700
H412        H  0.95399393  0.24084936  0.35754304     0.11700
H413        H  0.01105453  0.17414706  0.40629710     0.11700
H414        H  0.97436669  0.25275381  0.56153414     0.11700
C415        C  0.78189276  0.40121245  0.49354841    -0.14400
C416        C  0.79572883  0.42686866  0.44382220     0.07700
C417        C  0.76431192  0.47183444  0.42657591    -0.14400
C418        C  0.72057344  0.49117655  0.45871596    -0.14400
C419        C  0.70717773  0.46607742  0.50895486     0.07700
C420        C  0.73821261  0.42063698  0.52583148    -0.14400
H421        H  0.80537881  0.36652387  0.50796730     0.11700
H422        H  0.77294828  0.49165755  0.38774432     0.11700
H423        H  0.69793145  0.52652571  0.44465697     0.11700
H424        H  0.72968776  0.40083977  0.56472414     0.11700
C425        C  0.26395293  0.75698509  0.32966687    -0.14400
C426        C  0.31214767  0.77432791  0.30411160     0.07700
C427        C  0.32724019  0.75178761  0.25271722    -0.14400
C428        C  0.29123044  0.71909662  0.22397572    -0.14400
C429        C  0.24085002  0.70596335  0.24737711     0.07700
C430        C  0.22878869  0.72246215  0.30164723    -0.14400
H431        H  0.25110444  0.77325643  0.36912684     0.11700
H432        H  0.36537465  0.76216452  0.23287379     0.11700
H433        H  0.30173344  0.70579820  0.18261932     0.11700
H434        H  0.19001425  0.71239010  0.32048085     0.11700
C435        C  0.46441568  0.92590039  0.25134392    -0.14400
C436        C  0.41406297  0.94298862  0.27415575     0.07700
C437        C  0.39154629  0.99314603  0.25789883    -0.14400
C438        C  0.42285365  0.02866063  0.22760555    -0.14400
C439        C  0.47657340  0.01419360  0.21256031     0.07700
C440        C  0.49576954  0.96142612  0.22127165    -0.14400
H441        H  0.48126893  0.88624992  0.26023478     0.11700
H442        H  0.35070575  0.00634057  0.26939616     0.11700
H443        H  0.40637053  0.06857296  0.21935795     0.11700
H444        H  0.53649311  0.94867318  0.20816150     0.11700
C445        C  0.22637409  0.94620684  0.40066509    -0.14400
C446        C  0.27302486  0.91940605  0.42266382     0.07700
C447        C  0.28623971  0.92608399  0.47860388    -0.14400
C448        C  0.25491883  0.96117795  0.51142043    -0.14400
C449        C  0.20958150  0.99001121  0.48891213     0.07700
C450        C  0.19471053  0.98095061  0.43355168    -0.14400
H451        H  0.21626134  0.94237735  0.35714105     0.11700
H452        H  0.32290475  0.90702355  0.49589082     0.11700
H453        H  0.26700564  0.96661389  0.55421112     0.11700
H454        H  0.15954669  0.00175719  0.41528090     0.11700
C455        C  0.42991955  0.76900617  0.45203490    -0.14400
C456        C  0.43887990  0.82317660  0.44047908     0.07700
C457        C  0.48453997  0.84789001  0.46509383    -0.14400
C458        C  0.52167706  0.81839594  0.49845538    -0.14400
C459        C  0.51408817  0.76349256  0.50764379     0.07700
C460        C  0.46713180  0.73950902  0.48495022    -0.14400
H461        H  0.39565097  0.74859579  0.43342911     0.11700
H462        H  0.49220593  0.88988418  0.45766989     0.11700
H463        H  0.55709682  0.83813053  0.51562341     0.11700
H464        H  0.45956079  0.69737264  0.49170049     0.11700
C465        C  0.22803859  0.19139943  0.79514190    -0.14400
C466        C  0.22559404  0.18709930  0.73753120     0.07700
C467        C  0.26292618  0.21579872  0.70503587    -0.14400
C468        C  0.29937492  0.25116137  0.72941551    -0.14400
C469        C  0.29973598  0.25804949  0.78705549     0.07700
C470        C  0.26523578  0.22595078  0.81962434    -0.14400
H471        H  0.20021742  0.16932315  0.82111037     0.11700
H472        H  0.26226925  0.21298133  0.66028327     0.11700
H473        H  0.32587017  0.27336589  0.70254373     0.11700
H474        H  0.26551039  0.22945537  0.86432878     0.11700
C475        C  0.31684638  0.45665582  0.93878054    -0.14400
C476        C  0.29763834  0.40559926  0.92575007     0.07700
C477        C  0.24826747  0.38871165  0.94998496    -0.14400
C478        C  0.21708020  0.42319498  0.98335965    -0.14400
C479        C  0.23462349  0.47535718  0.99376775     0.07700
C480        C  0.28555524  0.49128425  0.97231940    -0.14400
H481        H  0.35474107  0.47075411  0.92124654     0.11700
H482        H  0.23307617  0.34888317  0.94257860     0.11700
H483        H  0.17844431  0.40946161  0.99968373     0.11700
H484        H  0.30054257  0.53114031  0.98014557     0.11700
C485        C  0.48529796  0.24680867  0.90343440    -0.14400
C486        C  0.45052170  0.28838313  0.92234816     0.07700
C487        C  0.45683594  0.30783009  0.97626930    -0.14400
C488        C  0.49405894  0.28239137  0.01252333    -0.14400
C489        C  0.52531606  0.23753958  0.99484882     0.07700
C490        C  0.52239552  0.22160525  0.93934793    -0.14400
H491        H  0.48208500  0.23223792  0.86135153     0.11700
H492        H  0.43059568  0.34016693  0.99133398     0.11700
H493        H  0.49586150  0.29569267  0.05512540     0.11700
H494        H  0.54649747  0.18768433  0.92439504     0.11700
C495        C  0.47900083  0.38995206  0.75099434    -0.14400
C496        C  0.44051102  0.40913024  0.78987975     0.07700
C497        C  0.44279087  0.46258363  0.80708021    -0.14400
C498        C  0.48185047  0.49674938  0.78477781    -0.14400
C499        C  0.52033324  0.47788351  0.74559420     0.07700
C500        C  0.51881363  0.42390663  0.72933458    -0.14400
H501        H  0.47857085  0.34851199  0.73776804     0.11700
H502        H  0.41363488  0.47821709  0.83697142     0.11700
H503        H  0.48180020  0.53813162  0.79821501     0.11700
H504        H  0.54769343  0.40821191  0.69917436     0.11700
C505        C  0.24956109  0.76659317  0.97246755    -0.17500
C506        C  0.23159098  0.76503684  0.02500657    -0.32700
H507        H  0.23434570  0.73792293  0.94256846     0.11500
H508        H  0.24352187  0.79555393  0.05443805     0.12100
C509        C  0.26213693  0.97831317  0.75971530    -0.17500
C510        C  0.21793109  0.00612282  0.77729111    -0.32700
H511        H  0.26652425  0.97052005  0.71576262     0.11500
H512        H  0.21120174  0.01292011  0.82103318     0.12100
C513        C  0.25761725  0.77538167  0.72591076    -0.14400
C514        C  0.29012337  0.74757577  0.76511850     0.07700
C515        C  0.27825645  0.69434937  0.77810197    -0.14400
C516        C  0.23494617  0.66922769  0.75183602    -0.14400
C517        C  0.20267287  0.69653068  0.71176475     0.07700
C518        C  0.21429488  0.75020634  0.69943633    -0.14400
H519        H  0.26545912  0.81684316  0.71575297     0.11700
H520        H  0.30201528  0.67222573  0.80891357     0.11700
H521        H  0.22711691  0.62776428  0.76203202     0.11700
H522        H  0.19126879  0.77312658  0.66910013     0.11700
C523        C  0.25476733  0.05951665  0.98548903    -0.14400
C524        C  0.28594302  0.01780550  0.01003271     0.07700
C525        C  0.27783718  0.00529839  0.06605587    -0.14400
C526        C  0.23662466  0.03114683  0.09610631    -0.14400
C527        C  0.20235617  0.06978414  0.07061283     0.07700
C528        C  0.21300562  0.08548973  0.01579015    -0.14400
H529        H  0.26024503  0.06947661  0.94221751     0.11700
H530        H  0.30200154  0.97370095  0.08598540     0.11700
H531        H  0.23008511  0.01937692  0.13873722     0.11700
H532        H  0.18694480  0.11529951  0.99540249     0.11700
C533        C  0.50199129  0.76396511  0.77298564    -0.17500
C534        C  0.49197432  0.74479108  0.72145069    -0.32700
H535        H  0.53458931  0.74604995  0.79828698     0.11500
H536        H  0.45893064  0.76214918  0.69625944     0.12100
C537        C  0.46984769  0.68817542  0.99558122    -0.14400
C538        C  0.47996934  0.74318587  0.99871532     0.07700
C539        C  0.52522242  0.76095412  0.02962780    -0.14400
C540        C  0.55738572  0.72452185  0.06013388    -0.14400
C541        C  0.54421586  0.67019755  0.06046256     0.07700
C542        C  0.50151331  0.65194430  0.02669692    -0.14400
H543        H  0.43560789  0.67344769  0.97164078     0.11700
H544        H  0.53436299  0.80319703  0.03207902     0.11700
H545        H  0.59004740  0.73919882  0.08631265     0.11700
H546        H  0.49116881  0.60992312  0.02640444     0.11700
C547        C  0.53954888  0.00148379  0.76921225    -0.14400
C548        C  0.48719063  0.02513054  0.77588845     0.07700
C549        C  0.47484076  0.07438295  0.75027396    -0.14400
C550        C  0.51281625  0.09731672  0.71432455    -0.14400
C551        C  0.56381979  0.07161467  0.70447587     0.07700
C552        C  0.57772713  0.02481393  0.73441323    -0.14400
H553        H  0.55031838  0.96393591  0.78961446     0.11700
H554        H  0.43463075  0.09317629  0.75510307     0.11700
H555        H  0.50077811  0.13323618  0.69177197     0.11700
H556        H  0.61737510  0.00496152  0.72934787     0.11700
C557        C  0.50975251  0.99508803  0.99200781    -0.17500
C558        C  0.49925198  0.01914132  0.04076970    -0.32700
H559        H  0.54609683  0.00514610  0.96852614     0.11500
H560        H  0.46002312  0.01331243  0.06103439     0.12100
C561        C  0.96218780  0.22588976  0.75887195    -0.17500
C562        C  0.00457516  0.23800190  0.72533931    -0.32700
H563        H  0.94992871  0.18444614  0.76280939     0.11500
H564        H  0.01705420  0.27936616  0.72135079     0.12100
C565        C  0.74209270  0.24730814  0.02341257    -0.17500
C566        C  0.79055628  0.27083915  0.03037603    -0.32700
H567        H  0.71771167  0.25644732  0.98663018     0.11500
H568        H  0.81473553  0.26253269  0.06747478     0.12100
C569        C  0.76526066  0.26744764  0.68060311    -0.14400
C570        C  0.74972279  0.27760328  0.73567765     0.07700
C571        C  0.70252995  0.25281155  0.75632116    -0.14400
C572        C  0.67369721  0.21628496  0.72374800    -0.14400
C573        C  0.69178576  0.20343303  0.67013862     0.07700
C574        C  0.73682286  0.23060943  0.64836945    -0.14400
H575        H  0.80124162  0.28582507  0.66320787     0.11700
H576        H  0.68943279  0.25959385  0.79856399     0.11700
H577        H  0.63916246  0.19589734  0.74167463     0.11700
H578        H  0.75099911  0.22232723  0.60676990     0.11700
C579        C  0.03424585  0.26760546  0.99251088    -0.14400
C580        C  0.99276021  0.24677980  0.95862734     0.07700
C581        C  0.98505981  0.19109305  0.95777259    -0.14400
C582        C  0.01370929  0.15767122  0.99456095    -0.14400
C583        C  0.05115622  0.17921550  0.03219724     0.07700
C584        C  0.06342816  0.23387309  0.02905526    -0.14400
H585        H  0.04105066  0.31034472  0.99406223     0.11700
H586        H  0.95395868  0.17375816  0.93148688     0.11700
H587        H  0.00464810  0.11534718  0.99549223     0.11700
H588        H  0.09239207  0.25121375  0.05772302     0.11700
C589        C  0.74738230  0.48166565  0.77331743    -0.17500
C590        C  0.75338364  0.50751953  0.72474544    -0.32700
H591        H  0.70992829  0.48770010  0.79712112     0.11500
H592        H  0.79035176  0.50147278  0.70026872     0.12100
C593        C  0.73853603  0.54638244  0.98893370    -0.14400
C594        C  0.76601860  0.49817644  0.00321364     0.07700
C595        C  0.75257448  0.47286643  0.05323516    -0.14400
C596        C  0.71320900  0.49574680  0.08865804    -0.14400
C597        C  0.68575174  0.54416310  0.07456528     0.07700
C598        C  0.69861278  0.56885006  0.02392237    -0.14400
H599        H  0.74744529  0.56648654  0.95030206     0.11700
H600        H  0.77320192  0.43577156  0.06547398     0.11700
H601        H  0.70509152  0.47584754  0.12754193     0.11700
H602        H  0.67742363  0.60523590  0.01065603     0.11700
C603        C  0.97482946  0.56195180  0.79378113    -0.14400
C604        C  0.97242687  0.50717555  0.78129979     0.07700
C605        C  0.00537578  0.48594734  0.73866317    -0.14400
C606        C  0.04026880  0.51854929  0.70908030    -0.14400
C607        C  0.04368859  0.57286473  0.72206451     0.07700
C608        C  0.01090687  0.59460844  0.76464449    -0.14400
H609        H  0.94977005  0.57908488  0.82645671     0.11700
H610        H  0.00404722  0.44387167  0.72785864     0.11700
H611        H  0.06573645  0.50092243  0.67697477     0.11700
H612        H  0.01312850  0.63670394  0.77509995     0.11700
C613        C  0.98541337  0.48062779  0.01313699    -0.17500
C614        C  0.01142973  0.52125792  0.98839583    -0.32700
H615        H  0.99425411  0.47152120  0.05645926     0.11500
H616        H  0.00548037  0.52899165  0.94437289     0.12100
C617        C  0.75800781  0.98556872  0.25548831    -0.17500
C618        C  0.76646535  0.03573477  0.23674637    -0.32700
H619        H  0.72204369  0.96396386  0.24201961     0.11500
H620        H  0.80418742  0.05574535  0.24788307     0.12100
C621        C  0.01438973  0.75175189  0.22943663    -0.17500
C622        C  0.97952272  0.73056504  0.26649119    -0.32700
H623        H  0.01428048  0.79493481  0.22341138     0.11500
H624        H  0.97843198  0.68732668  0.27161027     0.12100
C625        C  0.76475732  0.73022072  0.19420470    -0.14400
C626        C  0.75011819  0.76043375  0.24104135     0.07700
C627        C  0.69620816  0.75721371  0.26141827    -0.14400
C628        C  0.65906741  0.72168988  0.23847226    -0.14400
C629        C  0.67470664  0.68850424  0.19432430     0.07700
C630        C  0.72717413  0.69451245  0.17090652    -0.14400
H631        H  0.80614897  0.73148147  0.17804446     0.11700
H632        H  0.68352773  0.78036818  0.29721077     0.11700
H633        H  0.61850194  0.71909136  0.25640567     0.11700
H634        H  0.74030352  0.66939883  0.13674724     0.11700
C635        C  0.97998958  0.96245222  0.18106818    -0.14400
C636        C  0.96609232  0.96718508  0.23712676     0.07700
C637        C  0.98600240  0.01083570  0.26733953    -0.14400
C638        C  0.01906475  0.04895881  0.24225889    -0.14400
C639        C  0.03363103  0.04430361  0.18606420     0.07700
C640        C  0.01322611  0.00053464  0.15592736    -0.14400
H641        H  0.96492377  0.92954679  0.15653117     0.11700
H642        H  0.97527984  0.01616617  0.31048452     0.11700
H643        H  0.03209521  0.08187577  0.26754304     0.11700
H644        H  0.02318464  0.99584814  0.11252224     0.11700
C645        C  0.76999043  0.74415211  0.52711640    -0.17500
C646        C  0.74236064  0.69997481  0.51181130    -0.32700
H647        H  0.76576759  0.76013944  0.56875093     0.11500
H648        H  0.74887228  0.68426211  0.47028929     0.12100
C649        C  0.03924047  0.73283137  0.48107126    -0.14400
C650        C  0.98470569  0.71570226  0.47720602     0.07700
C651        C  0.96651641  0.67593166  0.51353622    -0.14400
C652        C  0.00118560  0.65663746  0.55575932    -0.14400
C653        C  0.05427975  0.67692934  0.56200886     0.07700
C654        C  0.07367245  0.71370975  0.52315237    -0.14400
H655        H  0.05422333  0.76349400  0.45345885     0.11700
H656        H  0.92436038  0.66287372  0.51202405     0.11700
H657        H  0.98542447  0.62811740  0.58526307     0.11700
H658        H  0.11505097  0.72866627  0.52606889     0.11700
C659        C  0.77117381  0.97205775  0.54876816    -0.14400
C660        C  0.75633214  0.95475437  0.49553919     0.07700
C661        C  0.70887547  0.97682287  0.47056814    -0.14400
C662        C  0.67815771  0.01689650  0.49714089    -0.14400
C663        C  0.69462893  0.03669020  0.54920762     0.07700
C664        C  0.74051929  0.01223579  0.57532918    -0.14400
H665        H  0.80755744  0.95583741  0.56928581     0.11700
H666        H  0.69601082  0.96393242  0.42981417     0.11700
H667        H  0.64129272  0.03112489  0.47648603     0.11700
H668        H  0.75309266  0.02476121  0.61629247     0.11700
C669        C  0.96374869  0.99093549  0.47749318    -0.17500
C670        C  0.99934648  0.97308343  0.51680092    -0.32700
H671        H  0.95661177  0.03373690  0.47148168     0.11500
H672        H  0.00545309  0.93005021  0.52227831     0.12100
C673        C  0.80165443  0.95610171  0.00874712    -0.14400
C674        C  0.79885609  0.94831302  0.95107078     0.07700
C675        C  0.76618233  0.98411419  0.91915234    -0.14400
C676        C  0.73559091  0.02501513  0.94399557    -0.14400
C677        C  0.73750564  0.03189960  0.00148438     0.07700
C678        C  0.77139784  0.99768480  0.03359331    -0.14400
H679        H  0.82651416  0.93060682  0.03532617     0.11700
H680        H  0.76360059  0.97969082  0.87459695     0.11700
H681        H  0.71014806  0.05105713  0.91811627     0.11700
H682        H  0.77365403  0.00232378  0.07812526     0.11700
C683        C  0.98058533  0.88255703  0.79086945    -0.14400
C684        C  0.92650641  0.90184437  0.79769902     0.07700
C685        C  0.90595959  0.94240022  0.76246315    -0.14400
C686        C  0.94061046  0.96776399  0.72555370    -0.14400
C687        C  0.99646481  0.95297894  0.72316700     0.07700
C688        C  0.01558218  0.90807913  0.75356974    -0.14400
H689        H  0.99698885  0.85111154  0.81750862     0.11700
H690        H  0.86390183  0.95701937  0.76630921     0.11700
H691        H  0.92464735  0.00164530  0.70186977     0.11700
H692        H  0.05854336  0.89588523  0.75231237     0.11700
C693        C  0.79315902  0.74920088  0.80111129    -0.14400
C694        C  0.78132188  0.80319052  0.81176751     0.07700
C695        C  0.73728106  0.82898938  0.78349606    -0.14400
C696        C  0.70337975  0.80022248  0.74798221    -0.14400
C697        C  0.71304909  0.74524358  0.74037339     0.07700
C698        C  0.75924306  0.72043003  0.76588397    -0.14400
H699        H  0.82698246  0.72860778  0.82200490     0.11700
H700        H  0.72833304  0.87123572  0.78978514     0.11700
H701        H  0.66842574  0.82035043  0.72853666     0.11700
H702        H  0.76817932  0.67809237  0.76014433     0.11700
C703        C  0.91786781  0.76371415  0.00388755    -0.14400
C704        C  0.92515452  0.78072949  0.94865045     0.07700
C705        C  0.97124139  0.76113241  0.91978647    -0.14400
C706        C  0.01070777  0.72837739  0.94643586    -0.14400
C707        C  0.00521233  0.71434776  0.00271794     0.07700
C708        C  0.95752160  0.73120800  0.03066872    -0.14400
H709        H  0.88202869  0.77652202  0.02710250     0.11700
H710        H  0.97842656  0.77312487  0.87745060     0.11700
H711        H  0.04677756  0.71581925  0.92335563     0.11700
H712        H  0.95163684  0.72072518  0.07374052     0.11700
loop_ 
_geom_bond_atom_site_label_1 
_geom_bond_atom_site_label_2 
_geom_bond_distance 
_geom_bond_site_symmetry_2 
_ccdc_geom_bond_type 
C1            C2   1.529       .  S
C1            C7   1.537       .  S
C1            C5   1.529       .  S
C1          C674   1.520       .  S
C2            H9   1.087       .  S
C2            C3   1.363       .  D
C3            C4   1.537       .  S
C3          C684   1.476       .  S
C4            C8   1.555       .  S
C4            C6   1.544       .  S
C4           H10   1.110       .  S
C5           H11   1.087       .  S
C5            C6   1.361       .  D
C6          C694   1.479       .  S
C7           H12   1.080       .  S
C7            C8   1.371       .  D
C8          C704   1.498       .  S
O13          C21   1.279       .  A
O13         Co33   2.020       .  S
O14          C22   1.269       .  A
O14         Co34   2.036       .  S
O15          C23   1.264       .  A
O15         Co35   1.910       .  S
O16          C24   1.258       .  A
O16         Co36   1.958       .  S
O17          C23   1.293       .  A
O17         Co34   2.103       .  S
O18          C24   1.274       .  A
O18         Co33   2.046       .  S
O19          C22   1.253       .  A
O19         Co36   1.959       .  S
O20          C21   1.270       .  A
O20         Co35   1.965       .  S
C21         C660   1.477       .  S
C22         C626   1.481       .  S
C23         C617   1.480       .  S
C24         C645   1.492       .  S
O25          C38   1.255       .  A
O25         Co33   1.944       .  S
O26          C39   1.272       .  A
O26         Co34   1.909       .  S
O27          C40   1.261       .  A
O27         Co35   2.022       .  S
O28          C41   1.276       .  A
O28         Co36   2.034       .  S
O29          C41   1.267       .  A
O29         Co34   1.976       .  S
O30          C40   1.256       .  A
O30         Co33   1.971       .  S
O31          C38   1.274       .  A
O31         Co36   2.032       .  S
O32          C39   1.293       .  A
O32         Co35   2.080       .  S
Co33         O37   2.032       .  S
Co34         O37   2.036       .  S
Co35         O37   2.018       .  S
Co36         O37   2.039       .  S
C38         C650   1.469       .  S
C39         C636   1.481       .  S
C40         C669   1.488       .  S
C41         C622   1.489       .  S
O42          C50   1.293       .  A
O42         Co62   2.105       .  S
O43          C51   1.273       .  A
O43         Co63   2.033       .  S
O44          C52   1.272       .  A
O44         Co64   1.971       .  S
O45          C53   1.254       .  A
O45         Co65   1.953       .  S
O46          C52   1.279       .  A
O46         Co63   2.009       .  S
O47          C53   1.267       .  A
O47         Co62   2.017       .  S
O48          C51   1.261       .  A
O48         Co65   1.971       .  S
O49          C50   1.261   1_554  A
O49         Co64   1.900   1_554  S
C50         C613   1.477   1_556  S
C51         C561   1.488       .  S
C52         C580   1.474       .  S
C53         C604   1.469       .  S
O54          C67   1.263       .  A
O54         Co62   1.961       .  S
O55          C68   1.264       .  A
O55         Co63   1.991       .  S
O56          C69   1.298       .  A
O56         Co64   2.111       .  S
O57          C70   1.276       .  A
O57         Co65   2.024       .  S
O58          C70   1.266       .  A
O58         Co63   1.971       .  S
O59          C69   1.268       .  A
O59         Co62   1.898       .  S
O60          C67   1.276       .  A
O60         Co65   2.031       .  S
O61          C68   1.258       .  A
O61         Co64   1.994       .  S
Co62         O66   2.021       .  S
Co63         O66   2.031       .  S
Co64         O66   2.008       .  S
Co65         O66   2.031       .  S
C67         C589   1.471       .  S
C68         C566   1.479   1_556  S
C69         C594   1.484   1_556  S
C70         C570   1.487       .  S
O71          C79   1.266       .  A
O71         Co91   1.959       .  S
O72          C80   1.297       .  A
O72         Co92   2.062       .  S
O73          C81   1.266       .  A
O73         Co93   2.031       .  S
O74          C82   1.264       .  A
O74         Co94   1.980       .  S
O75          C81   1.244       .  A
O75         Co92   1.934       .  S
O76          C82   1.269       .  A
O76         Co91   2.005       .  S
O77          C80   1.274       .  A
O77         Co94   1.886       .  S
O78          C79   1.276       .  A
O78         Co93   2.018       .  S
C79         C524   1.470   1_566  S
C80         C514   1.465       .  S
C81         C509   1.467       .  S
C82         C505   1.476       .  S
O83          C96   1.263       .  A
O83         Co91   1.965       .  S
O84          C97   1.296       .  A
O84         Co92   2.052       .  S
O85          C98   1.265       .  A
O85         Co93   1.996       .  S
O86          C99   1.263       .  A
O86         Co94   2.016       .  S
O87          C99   1.244       .  A
O87         Co92   1.960       .  S
O88          C98   1.265       .  A
O88         Co91   1.984       .  S
O89          C96   1.271       .  A
O89         Co94   1.993       .  S
O90          C97   1.279   1_545  A
O90         Co93   1.912   1_545  S
Co91         O95   2.014       .  S
Co92         O95   2.096       .  S
Co93         O95   1.933       .  S
Co94         O95   1.925       .  S
C96         C538   1.468       .  S
C97         C548   1.468   1_565  S
C98         C557   1.475       .  S
C99         C533   1.474       .  S
C100        C101   1.525       .  S
C100        C106   1.545       .  S
C100        C104   1.528       .  S
C100        C469   1.518       .  S
C101        H108   1.087       .  S
C101        C102   1.362       .  D
C102        C103   1.537       .  S
C102        C486   1.471       .  S
C103        C107   1.544       .  S
C103        C105   1.547       .  S
C103        H109   1.110       .  S
C104        H110   1.086       .  S
C104        C105   1.362       .  D
C105        C476   1.490       .  S
C106        H111   1.082       .  S
C106        C107   1.371       .  D
C107        C496   1.484       .  S
C112        C113   1.529       .  S
C112        C118   1.519       .  S
C112        C116   1.536       .  S
C112        C436   1.511       .  S
C113        H120   1.083       .  S
C113        C114   1.357       .  D
C114        C115   1.548       .  S
C114        C446   1.476       .  S
C115        C119   1.554       .  S
C115        C117   1.551       .  S
C115        H121   1.109       .  S
C116        H122   1.086       .  S
C116        C117   1.365       .  D
C117        C456   1.492       .  S
C118        H123   1.086       .  S
C118        C119   1.366       .  D
C119        C426   1.489       .  S
C124        C125   1.552       .  S
C124        C130   1.529       .  S
C124        C128   1.528       .  S
C124        C396   1.523       .  S
C125        H132   1.082       .  S
C125        C126   1.375       .  D
C126        C127   1.536       .  S
C126        C416   1.488       .  S
C127        C131   1.534       .  S
C127        C129   1.534       .  S
C127        H133   1.109       .  S
C128        H134   1.087       .  S
C128        C129   1.358       .  D
C129        C406   1.469       .  S
C130        H135   1.086       .  S
C130        C131   1.364       .  D
C131        C386   1.471       .  S
O136        C144   1.265       .  A
O136       Co156   2.016       .  S
O137        C145   1.298       .  A
O137       Co157   2.120       .  S
O138        C146   1.254       .  A
O138       Co158   1.964       .  S
O139        C147   1.258       .  A
O139       Co159   1.943       .  S
O140        C146   1.264       .  A
O140       Co157   2.018       .  S
O141        C147   1.282       .  A
O141       Co156   2.041       .  S
O142        C145   1.260       .  A
O142       Co159   1.904       .  S
O143        C144   1.261       .  A
O143       Co158   1.960       .  S
C144        C510   1.481       .  S
C145        C381   1.482       .  S
C146        C449   1.483   1_545  S
C147        C466   1.472       .  S
O148        C161   1.255       .  A
O148       Co156   1.975       .  S
O149        C162   1.272       .  A
O149       Co157   1.982       .  S
O150        C163   1.274       .  A
O150       Co158   2.024   1_565  S
O151        C164   1.296       .  A
O151       Co159   2.089       .  S
O152        C164   1.270       .  A
O152       Co157   1.890       .  S
O153        C163   1.263   1_545  A
O153       Co156   1.957       .  S
O154        C161   1.263       .  A
O154       Co159   2.022       .  S
O155        C162   1.279   1_565  A
O155       Co158   2.028   1_565  S
Co156       O160   2.047       .  S
Co157       O160   2.029       .  S
Co158       O160   2.022       .  S
Co159       O160   1.998       .  S
C161        C562   1.488       .  S
C162        C670   1.483   1_445  S
C163        C687   1.473   1_455  S
C164        C409   1.476   1_455  S
O165        C173   1.267       .  A
O165       Co185   1.998       .  S
O166        C174   1.280       .  A
O166       Co186   1.937       .  S
O167        C175   1.266   1_556  A
O167       Co187   2.025   1_556  S
O168        C176   1.299       .  A
O168       Co188   2.096       .  S
O169        C175   1.255       .  A
O169       Co186   1.979       .  S
O170        C176   1.268       .  A
O170       Co185   1.899       .  S
O171        C174   1.287       .  A
O171       Co188   2.020       .  S
O172        C173   1.266       .  A
O172       Co187   2.001       .  S
C173        C707   1.489       .  S
C174        C399   1.477       .  S
C175        C614   1.479   1_554  S
C176        C621   1.490       .  S
O177        C190   1.251       .  A
O177       Co185   1.975       .  S
O178        C191   1.276       .  A
O178       Co186   2.018       .  S
O179        C192   1.265       .  A
O179       Co187   1.974       .  S
O180        C193   1.258       .  A
O180       Co188   2.028       .  S
O181        C193   1.237       .  A
O181       Co186   1.960       .  S
O182        C192   1.269       .  A
O182       Co185   2.009       .  S
O183        C190   1.250       .  A
O183       Co188   1.982       .  S
O184        C191   1.266       .  A
O184       Co187   1.977       .  S
Co185       O189   1.930       .  S
Co186       O189   1.936       .  S
Co187       O189   2.095       .  S
Co188       O189   2.259       .  S
C190        C429   1.468       .  S
C191        C479   1.482   1_554  S
C192        C506   1.472       .  S
C193        C377   1.480       .  S
O194        C202   1.267       .  A
O194       Co214   1.881       .  S
O195        C203   1.260       .  A
O195       Co215   1.944       .  S
O196        C204   1.267       .  A
O196       Co216   2.021       .  S
O197        C205   1.278       .  A
O197       Co217   2.022       .  S
O198        C204   1.258       .  A
O198       Co215   1.978       .  S
O199        C205   1.269       .  A
O199       Co214   1.965       .  S
O200        C203   1.273       .  A
O200       Co217   2.010       .  S
O201        C202   1.296       .  A
O201       Co216   2.102       .  S
C202        C677   1.471       .  S
C203        C439   1.460       .  S
C204        C618   1.483       .  S
C205        C558   1.464       .  S
O206        C219   1.264       .  A
O206       Co214   1.993       .  S
O207        C220   1.278       .  A
O207       Co215   2.016       .  S
O208        C221   1.269       .  A
O208       Co216   1.912       .  S
O209        C222   1.258       .  A
O209       Co217   1.959       .  S
O210        C222   1.273       .  A
O210       Co215   2.039       .  S
O211        C221   1.287       .  A
O211       Co214   2.087       .  S
O212        C219   1.257       .  A
O212       Co217   1.971       .  S
O213        C220   1.268       .  A
O213       Co216   1.955       .  S
Co214       O218   1.992       .  S
Co215       O218   2.023       .  S
Co216       O218   1.990       .  S
Co217       O218   2.010       .  S
C219        C489   1.470   1_554  S
C220        C389   1.466       .  S
C221        C565   1.476       .  S
C222        C373   1.469       .  S
C223        C224   1.536       .  S
C223        C229   1.551       .  S
C223        C227   1.530       .  S
C223        C364   1.534       .  S
C224        H231   1.086       .  S
C224        C225   1.370       .  D
C225        C226   1.535       .  S
C225        C629   1.488       .  S
C226        C230   1.542       .  S
C226        C228   1.534       .  S
C226        H232   1.109       .  S
C227        H233   1.087       .  S
C227        C228   1.361       .  D
C228        C541   1.466       .  S
C229        H234   1.082       .  S
C229        C230   1.374       .  D
C230        C597   1.496       .  S
C235        C236   1.530       .  S
C235        C241   1.546       .  S
C235        C239   1.531       .  S
C235        C517   1.512       .  S
C236        H243   1.087       .  S
C236        C237   1.361       .  D
C237        C238   1.541       .  S
C237        C607   1.470       .  S
C238        C242   1.531       .  S
C238        C240   1.528       .  S
C238        H244   1.110       .  S
C239        H245   1.088       .  S
C239        C240   1.356       .  D
C240        C354   1.463       .  S
C241        H246   1.081       .  S
C241        C242   1.371       .  D
C242        C653   1.475       .  S
O247        C255   1.270       .  A
O247       Co267   1.964       .  S
O248        C256   1.250       .  A
O248       Co268   1.953       .  S
O249        C257   1.273       .  A
O249       Co269   2.029       .  S
O250        C258   1.286       .  A
O250       Co270   2.069       .  S
O251        C257   1.259       .  A
O251       Co268   1.960       .  S
O252        C258   1.273       .  A
O252       Co267   1.928       .  S
O253        C256   1.270       .  A
O253       Co270   2.046       .  S
O254        C255   1.280       .  A
O254       Co269   2.022       .  S
C255        C340   1.475       .  S
C256        C367   1.488       .  S
C257        C374   1.483       .  S
C258        C349   1.479       .  S
O259        C272   1.291       .  A
O259       Co267   2.082       .  S
O260        C273   1.272       .  A
O260       Co268   2.020       .  S
O261        C274   1.253       .  A
O261       Co269   1.955       .  S
O262        C275   1.258       .  A
O262       Co270   1.950       .  S
O263        C275   1.283       .  A
O263       Co268   2.058       .  S
O264        C274   1.271       .  A
O264       Co267   2.038       .  S
O265        C272   1.269       .  A
O265       Co270   1.897       .  S
O266        C273   1.258       .  A
O266       Co269   1.955       .  S
Co267       O271   2.022       .  S
Co268       O271   2.024       .  S
Co269       O271   2.017       .  S
Co270       O271   2.004       .  S
C272        C357   1.473       .  S
C273        C330   1.475       .  S
C274        C382   1.484       .  S
C275        C378   1.479       .  S
O276        C284   1.264       .  A
O276       Co296   1.993       .  S
O277        C285   1.252       .  A
O277       Co297   1.984       .  S
O278        C286   1.277       .  A
O278       Co298   1.915       .  S
O279        C287   1.281       .  A
O279       Co299   2.040       .  S
O280        C286   1.296       .  A
O280       Co297   2.071       .  S
O281        C287   1.265       .  A
O281       Co296   1.962       .  S
O282        C285   1.244       .  A
O282       Co299   1.979       .  S
O283        C284   1.264       .  A
O283       Co298   1.992       .  S
C284        C534   1.482       .  S
C285        C350   1.479       .  S
C286        C459   1.487       .  S
C287        C499   1.486       .  S
O288        C301   1.264       .  A
O288       Co296   2.003       .  S
O289        C302   1.256       .  A
O289       Co297   2.002       .  S
O290        C303   1.268       .  A
O290       Co298   2.012       .  S
O291        C304   1.271       .  A
O291       Co299   1.882       .  S
O292        C304   1.302       .  A
O292       Co297   2.099       .  S
O293        C303   1.256       .  A
O293       Co296   1.958       .  S
O294        C301   1.256       .  A
O294       Co299   1.971       .  S
O295        C302   1.248       .  A
O295       Co298   1.981       .  S
Co296       O300   2.066       .  S
Co297       O300   2.194       .  S
Co298       O300   1.980       .  S
Co299       O300   1.973       .  S
C301        C590   1.475       .  S
C302        C646   1.488       .  S
C303        C697   1.473       .  S
C304        C419   1.485       .  S
C305        C306   1.536       .  S
C305        C311   1.527       .  S
C305        C309   1.540       .  S
C305        C663   1.525       .  S
C306        H313   1.082       .  S
C306        C307   1.362       .  D
C307        C308   1.540       .  S
C307        C343   1.478       .  S
C308        C312   1.542       .  S
C308        C310   1.541       .  S
C308        H314   1.109       .  S
C309        H315   1.086       .  S
C309        C310   1.372       .  D
C310        C573   1.488       .  S
C311        H316   1.086       .  S
C311        C312   1.366       .  D
C312        C551   1.484       .  S
C317        C318   1.546       .  S
C317        C323   1.534       .  S
C317        C321   1.533       .  S
C317        C639   1.530       .  S
C318        H325   1.081       .  S
C318        C319   1.371       .  D
C319        C320   1.537       .  S
C319        C333   1.484       .  S
C320        C324   1.532       .  S
C320        C322   1.532       .  S
C320        H326   1.110       .  S
C321        H327   1.086   1_455  S
C321        C322   1.366       .  D
C322        C583   1.474       .  S
C323        H328   1.086       .  S
C323        C324   1.366       .  D
C324        C527   1.477       .  S
C329        C330   1.402       .  A
C329        C334   1.397       .  A
C329        H335   1.083       .  S
C330        C331   1.406       .  A
C331        C332   1.395       .  A
C331        H336   1.083       .  S
C332        C333   1.404       .  A
C332        H337   1.083       .  S
C333        C334   1.407       .  A
C334        H338   1.082       .  S
C339        C340   1.403       .  A
C339        C344   1.394       .  A
C339        H345   1.083       .  S
C340        C341   1.407       .  A
C341        C342   1.401       .  A
C341        H346   1.083       .  S
C342        C343   1.402       .  A
C342        H347   1.083       .  S
C343        C344   1.404       .  A
C344        H348   1.083       .  S
C349        H351   1.086       .  S
C349        C350   1.339       .  D
C350        H352   1.085       .  S
C353        C354   1.396       .  A
C353        C358   1.396       .  A
C353        H359   1.083       .  S
C354        C355   1.402       .  A
C355        C356   1.393       .  A
C355        H360   1.084       .  S
C356        C357   1.403       .  A
C356        H361   1.083       .  S
C357        C358   1.409       .  A
C358        H362   1.083       .  S
C363        C364   1.403       .  A
C363        C368   1.394       .  A
C363        H369   1.079       .  S
C364        C365   1.417       .  A
C365        C366   1.407       .  A
C365        H370   1.083       .  S
C366        C367   1.402       .  A
C366        H371   1.083       .  S
C367        C368   1.409       .  A
C368        H372   1.083       .  S
C373        H375   1.087       .  S
C373        C374   1.348       .  D
C374        H376   1.087       .  S
C377        H379   1.086       .  S
C377        C378   1.341       .  D
C378        H380   1.086       .  S
C381        H383   1.087       .  S
C381        C382   1.356       .  D
C382        H384   1.086       .  S
C385        C386   1.404       .  A
C385        C390   1.389       .  A
C385        H391   1.083       .  S
C386        C387   1.401       .  A
C387        C388   1.394       .  A
C387        H392   1.083       .  S
C388        C389   1.405       .  A
C388        H393   1.083       .  S
C389        C390   1.402       .  A
C390        H394   1.083       .  S
C395        C396   1.415       .  A
C395        C400   1.400   1_655  A
C395        H401   1.083       .  S
C396        C397   1.402       .  A
C397        C398   1.392       .  A
C397        H402   1.077       .  S
C398        C399   1.409   1_655  A
C398        H403   1.083       .  S
C399        C400   1.399       .  A
C400        H404   1.083       .  S
C405        C406   1.400       .  A
C405        C410   1.400       .  A
C405        H411   1.083       .  S
C406        C407   1.401       .  A
C407        C408   1.393       .  A
C407        H412   1.084       .  S
C408        C409   1.404       .  A
C408        H413   1.083   1_655  S
C409        C410   1.409       .  A
C410        H414   1.083       .  S
C415        C416   1.405       .  A
C415        C420   1.400       .  A
C415        H421   1.083       .  S
C416        C417   1.405       .  A
C417        C418   1.399       .  A
C417        H422   1.083       .  S
C418        C419   1.407       .  A
C418        H423   1.083       .  S
C419        C420   1.407       .  A
C420        H424   1.083       .  S
C425        C426   1.404       .  A
C425        C430   1.400       .  A
C425        H431   1.082       .  S
C426        C427   1.411       .  A
C427        C428   1.394       .  A
C427        H432   1.082       .  S
C428        C429   1.397       .  A
C428        H433   1.083       .  S
C429        C430   1.405       .  A
C430        H434   1.083       .  S
C435        C436   1.404       .  A
C435        C440   1.387       .  A
C435        H441   1.083       .  S
C436        C437   1.409       .  A
C437        C438   1.389   1_565  A
C437        H442   1.078   1_565  S
C438        C439   1.399       .  A
C438        H443   1.083       .  S
C439        C440   1.403   1_545  A
C440        H444   1.083       .  S
C445        C446   1.407       .  A
C445        C450   1.399       .  A
C445        H451   1.083       .  S
C446        C447   1.399       .  A
C447        C448   1.399       .  A
C447        H452   1.084       .  S
C448        C449   1.410       .  A
C448        H453   1.083       .  S
C449        C450   1.404       .  A
C450        H454   1.083   1_565  S
C455        C456   1.401       .  A
C455        C460   1.398       .  A
C455        H461   1.083       .  S
C456        C457   1.412       .  A
C457        C458   1.403       .  A
C457        H462   1.083       .  S
C458        C459   1.403       .  A
C458        H463   1.083       .  S
C459        C460   1.410       .  A
C460        H464   1.083       .  S
C465        C466   1.397       .  A
C465        C470   1.394       .  A
C465        H471   1.083       .  S
C466        C467   1.409       .  A
C467        C468   1.394       .  A
C467        H472   1.083       .  S
C468        C469   1.403       .  A
C468        H473   1.077       .  S
C469        C470   1.413       .  A
C470        H474   1.084       .  S
C475        C476   1.402       .  A
C475        C480   1.402       .  A
C475        H481   1.082       .  S
C476        C477   1.411       .  A
C477        C478   1.396       .  A
C477        H482   1.082       .  S
C478        C479   1.401       .  A
C478        H483   1.083       .  S
C479        C480   1.410       .  A
C480        H484   1.083       .  S
C485        C486   1.404       .  A
C485        C490   1.389       .  A
C485        H491   1.083       .  S
C486        C487   1.400       .  A
C487        C488   1.398   1_556  A
C487        H492   1.083       .  S
C488        C489   1.408   1_554  A
C488        H493   1.083       .  S
C489        C490   1.401       .  A
C490        H494   1.083       .  S
C495        C496   1.407       .  A
C495        C500   1.402       .  A
C495        H501   1.083       .  S
C496        C497   1.400       .  A
C497        C498   1.399       .  A
C497        H502   1.082       .  S
C498        C499   1.409       .  A
C498        H503   1.083       .  S
C499        C500   1.405       .  A
C500        H504   1.083       .  S
C505        H507   1.087       .  S
C505        C506   1.345   1_556  D
C506        H508   1.086       .  S
C509        H511   1.085       .  S
C509        C510   1.339   1_565  D
C510        H512   1.083       .  S
C513        C514   1.404       .  A
C513        C518   1.392       .  A
C513        H519   1.083       .  S
C514        C515   1.400       .  A
C515        C516   1.389       .  A
C515        H520   1.083       .  S
C516        C517   1.409       .  A
C516        H521   1.084       .  S
C517        C518   1.406       .  A
C518        H522   1.076       .  S
C523        C524   1.403   1_556  A
C523        C528   1.404   1_556  A
C523        H529   1.083       .  S
C524        C525   1.404       .  A
C525        C526   1.390       .  A
C525        H530   1.084   1_545  S
C526        C527   1.401       .  A
C526        H531   1.083       .  S
C527        C528   1.407       .  A
C528        H532   1.083   1_554  S
C533        H535   1.087       .  S
C533        C534   1.358       .  D
C534        H536   1.088       .  S
C537        C538   1.402       .  A
C537        C542   1.392   1_556  A
C537        H543   1.083       .  S
C538        C539   1.407   1_556  A
C539        C540   1.394       .  A
C539        H544   1.083       .  S
C540        C541   1.399       .  A
C540        H545   1.084       .  S
C541        C542   1.402       .  A
C542        H546   1.083       .  S
C547        C548   1.403       .  A
C547        C552   1.391       .  A
C547        H553   1.084   1_545  S
C548        C549   1.400       .  A
C549        C550   1.401       .  A
C549        H554   1.083       .  S
C550        C551   1.407       .  A
C550        H555   1.082       .  S
C551        C552   1.406       .  A
C552        H556   1.083       .  S
C557        H559   1.086   1_565  S
C557        C558   1.346   1_566  D
C558        H560   1.087       .  S
C561        H563   1.086       .  S
C561        C562   1.353   1_655  D
C562        H564   1.086       .  S
C565        H567   1.087   1_554  S
C565        C566   1.338       .  D
C566        H568   1.087       .  S
C569        C570   1.407       .  A
C569        C574   1.398       .  A
C569        H575   1.083       .  S
C570        C571   1.408       .  A
C571        C572   1.403       .  A
C571        H576   1.083       .  S
C572        C573   1.405       .  A
C572        H577   1.083       .  S
C573        C574   1.404       .  A
C574        H578   1.083       .  S
C579        C580   1.405   1_455  A
C579        C584   1.399   1_556  A
C579        H585   1.083       .  S
C580        C581   1.406       .  A
C581        C582   1.392   1_655  A
C581        H586   1.083       .  S
C582        C583   1.400   1_556  A
C582        H587   1.083       .  S
C583        C584   1.404       .  A
C584        H588   1.083       .  S
C589        H591   1.088       .  S
C589        C590   1.347       .  D
C590        H592   1.087       .  S
C593        C594   1.405   1_556  A
C593        C598   1.400   1_556  A
C593        H599   1.083       .  S
C594        C595   1.405       .  A
C595        C596   1.401       .  A
C595        H600   1.083       .  S
C596        C597   1.408       .  A
C596        H601   1.082       .  S
C597        C598   1.407       .  A
C598        H602   1.082       .  S
C603        C604   1.403       .  A
C603        C608   1.401   1_655  A
C603        H609   1.083       .  S
C604        C605   1.406   1_655  A
C605        C606   1.387       .  A
C605        H610   1.083       .  S
C606        C607   1.396       .  A
C606        H611   1.083       .  S
C607        C608   1.408       .  A
C608        H612   1.083       .  S
C613        H615   1.090       .  S
C613        C614   1.346   1_654  D
C614        H616   1.089       .  S
C617        H619   1.086       .  S
C617        C618   1.350   1_565  D
C618        H620   1.087       .  S
C621        H623   1.087       .  S
C621        C622   1.350   1_455  D
C622        H624   1.086       .  S
C625        C626   1.404       .  A
C625        C630   1.407       .  A
C625        H631   1.083       .  S
C626        C627   1.407       .  A
C627        C628   1.393       .  A
C627        H632   1.084       .  S
C628        C629   1.401       .  A
C628        H633   1.083       .  S
C629        C630   1.410       .  A
C630        H634   1.083       .  S
C635        C636   1.402       .  A
C635        C640   1.400   1_665  A
C635        H641   1.083       .  S
C636        C637   1.406   1_565  A
C637        C638   1.397   1_655  A
C637        H642   1.083       .  S
C638        C639   1.409       .  A
C638        H643   1.077       .  S
C639        C640   1.411       .  A
C640        H644   1.083   1_545  S
C645        H647   1.087       .  S
C645        C646   1.354       .  D
C646        H648   1.089       .  S
C649        C650   1.405   1_455  A
C649        C654   1.391       .  A
C649        H655   1.084       .  S
C650        C651   1.403       .  A
C651        C652   1.398   1_655  A
C651        H656   1.083       .  S
C652        C653   1.405       .  A
C652        H657   1.083   1_455  S
C653        C654   1.401       .  A
C654        H658   1.083       .  S
C659        C660   1.405       .  A
C659        C664   1.396   1_565  A
C659        H665   1.083       .  S
C660        C661   1.402       .  A
C661        C662   1.395   1_565  A
C661        H666   1.083       .  S
C662        C663   1.412       .  A
C662        H667   1.078       .  S
C663        C664   1.407       .  A
C664        H668   1.083       .  S
C669        H671   1.087   1_565  S
C669        C670   1.350       .  D
C670        H672   1.088   1_655  S
C673        C674   1.409   1_554  A
C673        C678   1.398       .  A
C673        H679   1.077       .  S
C674        C675   1.409       .  A
C675        C676   1.390   1_565  A
C675        H680   1.084       .  S
C676        C677   1.400   1_556  A
C676        H681   1.083       .  S
C677        C678   1.404   1_545  A
C678        H682   1.083   1_565  S
C683        C684   1.402       .  A
C683        C688   1.403   1_655  A
C683        H689   1.082       .  S
C684        C685   1.403       .  A
C685        C686   1.390       .  A
C685        H690   1.084       .  S
C686        C687   1.402       .  A
C686        H691   1.084   1_565  S
C687        C688   1.407   1_655  A
C688        H692   1.083       .  S
C693        C694   1.396       .  A
C693        C698   1.393       .  A
C693        H699   1.083       .  S
C694        C695   1.411       .  A
C695        C696   1.397       .  A
C695        H700   1.083       .  S
C696        C697   1.399       .  A
C696        H701   1.083       .  S
C697        C698   1.410       .  A
C698        H702   1.083       .  S
C703        C704   1.412   1_554  A
C703        C708   1.402       .  A
C703        H709   1.082       .  S
C704        C705   1.403       .  A
C705        C706   1.401   1_655  A
C705        H710   1.081       .  S
C706        C707   1.410   1_556  A
C706        H711   1.083       .  S
C707        C708   1.403   1_455  A
C708        H712   1.083       .  S
