geometry optimzed in LAMMPS
_audit_creation_date              2020-11-30 
_audit_creation_method            'lammps2cif' 
_symmetry_space_group_name_H-M    'P1' 
_symmetry_Int_Tables_number       1 
_symmetry_cell_setting            triclinic 
loop_ 
_symmetry_equiv_pos_as_xyz 
  x,y,z 
_cell_length_a                    35.47418429 
_cell_length_b                    35.47053806624695 
_cell_length_c                    26.448168426266765 
_cell_angle_alpha                 90.25016904092863 
_cell_angle_beta                  89.94236396167425 
_cell_angle_gamma                 120.05978710396178 
loop_ 
_atom_site_label 
_atom_site_type_symbol 
_atom_site_fract_x 
_atom_site_fract_y 
_atom_site_fract_z 
_atom_site_charge 
N1          N  0.37383386  0.37274330  0.07288251    -0.26900
N2          N  0.33605853  0.35374643  0.09684302    -0.34800
C3          C  0.34263456  0.36689240  0.14547106     0.01400
C4          C  0.38673459  0.39519212  0.15269540     0.07500
C5          C  0.40555733  0.39798880  0.10591941    -0.05600
H6          H  0.31704382  0.35730181  0.17323612     0.08100
H7          H  0.43942700  0.41876706  0.09594348     0.09300
Cu8        Cu  0.27704365  0.31235167  0.06153377     0.44200
Cu9        Cu  0.37905077  0.36812931  0.99479783     0.42000
Cu10       Cu  0.27691217  0.30881048  0.92457854     0.43900
N11         N  0.22247473  0.27146847  0.01854225    -0.34300
N12         N  0.22214837  0.27021446  0.96851843    -0.28500
C13         C  0.18233653  0.23938615  0.95267341    -0.04600
C14         C  0.15659252  0.22055261  0.99476504     0.07600
C15         C  0.18300713  0.24149753  0.03580891     0.01400
H16         H  0.17311085  0.23065044  0.91354688     0.09000
H17         H  0.17443093  0.23483738  0.07532472     0.08100
N18         N  0.33737627  0.34794929  0.89087425    -0.35700
N19         N  0.37460670  0.36780484  0.91612522    -0.27900
C20         C  0.40718323  0.39142517  0.88352923    -0.03200
C21         C  0.38961868  0.38677037  0.83563567     0.05400
C22         C  0.34530210  0.35897038  0.84174267     0.03500
H23         H  0.44074645  0.41276465  0.89448138     0.08600
H24         H  0.32040893  0.34864577  0.81290780     0.07500
N25         N  0.76664939  0.91633557  0.92280077    -0.26900
N26         N  0.80411445  0.93752924  0.89845541    -0.34800
C27         C  0.79765529  0.92574482  0.84937226     0.01400
C28         C  0.75388038  0.89617890  0.84236803     0.07500
C29         C  0.73517117  0.89107630  0.88964629    -0.05600
H30         H  0.82302644  0.93755421  0.82104311     0.08100
H31         H  0.70155923  0.86905864  0.89968082     0.09300
Cu32       Cu  0.86212084  0.98093837  0.93373572     0.44200
Cu33       Cu  0.76140579  0.91856429  0.00102412     0.42000
Cu34       Cu  0.86273042  0.97960064  0.07112608     0.43900
N35         N  0.91517937  0.02316796  0.97751287    -0.34300
N36         N  0.91598158  0.02230868  0.02751078    -0.28500
C37         C  0.95523858  0.05391781  0.04379173    -0.04600
C38         C  0.97991247  0.07560853  0.00199116     0.07600
C39         C  0.95363004  0.05542903  0.96069833     0.01400
H40         H  0.96490234  0.06090680  0.08304730     0.09000
H41         H  0.96184268  0.06356827  0.92132783     0.08100
N42         N  0.80298779  0.93787453  0.10476265    -0.35700
N43         N  0.76588511  0.91717947  0.07940371    -0.27900
C44         C  0.73349909  0.89275939  0.11180563    -0.03200
C45         C  0.75104682  0.89794714  0.15977889     0.05400
C46         C  0.79518476  0.92675756  0.15388161     0.03500
H47         H  0.69999917  0.87120359  0.10078643     0.08600
H48         H  0.81998252  0.93822968  0.18294442     0.07500
O49         O  0.62896612  0.68542962  0.44599960    -0.72600
O50         O  0.56951416  0.59207640  0.55189467    -0.73500
O51         O  0.56912146  0.59374134  0.44297356    -0.62200
O52         O  0.62969225  0.68380631  0.55236238    -0.70600
O53         O  0.57421231  0.69610306  0.55471961    -0.70100
O54         O  0.51336612  0.60558413  0.44547669    -0.61400
O55         O  0.51401976  0.60436169  0.55251042    -0.73900
O56         O  0.57297386  0.69699060  0.44648104    -0.72700
Cu57       Cu  0.60116754  0.63818896  0.49827195     1.04600
Cu58       Cu  0.54173743  0.65120762  0.49992454     1.04300
C59         C  0.61041778  0.70603186  0.42989096     0.93600
C60         C  0.53224512  0.58351371  0.56878188     0.92800
C61         C  0.53179834  0.58561709  0.42681157     0.84900
C62         C  0.61182950  0.70457483  0.57020363     0.91200
N63         N  0.84503500  0.22766424  0.08125366    -0.26900
N64         N  0.86163415  0.20583010  0.10334271    -0.34800
C65         C  0.84955929  0.19956561  0.15222863     0.01400
C66         C  0.82450147  0.21872505  0.16145325     0.07500
C67         C  0.82243440  0.23635843  0.11569020    -0.05600
H68         H  0.85782782  0.18174094  0.17882024     0.08100
H69         H  0.80393058  0.25225595  0.10730712     0.09300
Cu70       Cu  0.89966449  0.18522452  0.06595943     0.44200
Cu71       Cu  0.84814188  0.23869146  0.00382575     0.42000
Cu72       Cu  0.91002079  0.20151732  0.93087083     0.43900
N73         N  0.94262248  0.17546739  0.02209062    -0.34300
N74         N  0.94781920  0.18310107  0.97292944    -0.28500
C75         C  0.98019189  0.17672050  0.95657969    -0.04600
C76         C  0.99559059  0.16400127  0.99733058     0.07600
C77         C  0.97115068  0.16361489  0.03820743     0.01400
H78         H  0.99186895  0.18128335  0.91803811     0.09000
H79         H  0.97468905  0.15645899  0.07705325     0.08100
N80         N  0.86534413  0.21655435  0.89925817    -0.35700
N81         N  0.84397272  0.23166529  0.92559623    -0.27900
C82         C  0.81622560  0.23597166  0.89464375    -0.03200
C83         C  0.81993144  0.22245567  0.84664545     0.05400
C84         C  0.85135592  0.21037324  0.85101660     0.03500
H85         H  0.79343515  0.24600038  0.90681418     0.08600
H86         H  0.86251502  0.19704423  0.82157542     0.07500
N87         N  0.29919822  0.07855845  0.08030890    -0.26900
N88         N  0.27724739  0.09373744  0.10530801    -0.34800
C89         C  0.28877477  0.09831438  0.15440835     0.01400
C90         C  0.31903088  0.08490067  0.16050391     0.07500
C91         C  0.32470355  0.07243840  0.11286411    -0.05600
H92         H  0.27684934  0.11145457  0.18322077     0.08100
H93         H  0.34768417  0.06225921  0.10204464     0.09300
Cu94       Cu  0.23425996  0.10931237  0.07078136     0.44200
Cu95       Cu  0.29913728  0.07318217  0.00222628     0.42000
Cu96       Cu  0.23616696  0.10961395  0.93311943     0.43900
N97         N  0.19267948  0.12033899  0.02605589    -0.34300
N98         N  0.19332265  0.12037210  0.97601340    -0.28500
C99         C  0.16192117  0.12772820  0.95874447    -0.04600
C100        C  0.14065954  0.13249980  0.99987239     0.07600
C101        C  0.16083449  0.12763712  0.04191676     0.01400
H102        H  0.15491343  0.12920308  0.91924006     0.09000
H103        H  0.15279850  0.12903229  0.08109068     0.08100
N104        N  0.28089437  0.09598294  0.89923552    -0.35700
N105        N  0.30274296  0.08092924  0.92439443    -0.27900
C106        C  0.32955831  0.07615657  0.89232713    -0.03200
C107        C  0.32468296  0.08930565  0.84481831     0.05400
C108        C  0.29362776  0.10172677  0.85057746     0.03500
H109        H  0.35244012  0.06595668  0.90335531     0.08600
H110        H  0.28170997  0.11471277  0.82176504     0.07500
O111        O  0.53279822  0.17189381  0.44595150    -0.72600
O112        O  0.62390314  0.20677249  0.55418818    -0.73500
O113        O  0.62429488  0.20495054  0.44575513    -0.62200
O114        O  0.53241391  0.17333411  0.55264611    -0.70600
O115        O  0.52222127  0.10628519  0.55505207    -0.70100
O116        O  0.61294100  0.13745427  0.44743475    -0.61400
O117        O  0.61380253  0.13972178  0.55388367    -0.73900
O118        O  0.52144461  0.10438989  0.44629035    -0.72700
Cu119      Cu  0.57878776  0.19160172  0.49953586     1.04600
Cu120      Cu  0.56709087  0.11955423  0.50070048     1.04300
C121        C  0.51279348  0.13287406  0.42909308     0.93600
C122        C  0.63326237  0.17871135  0.57098277     0.92800
C123        C  0.63314199  0.17612143  0.42996199     0.84900
C124        C  0.51312598  0.13489540  0.57091764     0.91200
N125        N  0.14509197  0.44871258  0.07920829    -0.26900
N126        N  0.12471601  0.41069051  0.10239684    -0.34800
C127        C  0.11825457  0.41710329  0.15103478     0.01400
C128        C  0.13567848  0.46135111  0.15882744     0.07500
C129        C  0.15259748  0.48041286  0.11260156    -0.05600
H130        H  0.10113178  0.39135547  0.17825736     0.08100
H131        H  0.16688906  0.51449297  0.10309090     0.09300
Cu132      Cu  0.10524757  0.35196515  0.06619476     0.44200
Cu133      Cu  0.15474135  0.45519446  0.00168088     0.42000
Cu134      Cu  0.11585883  0.35599266  0.92975173     0.43900
N135        N  0.09523235  0.29967961  0.02170493    -0.34300
N136        N  0.10012541  0.30146839  0.97203302    -0.28500
C137        C  0.09358766  0.26292447  0.95497001    -0.04600
C138        C  0.08396995  0.23579366  0.99594910     0.07600
C139        C  0.08524855  0.25985053  0.03763787     0.01400
H140        H  0.09598579  0.25539022  0.91583167     0.09000
H141        H  0.08017636  0.24949521  0.07668076     0.08100
N142        N  0.12995118  0.41455238  0.89805483    -0.35700
N143        N  0.14572547  0.45133178  0.92397285    -0.27900
C144        C  0.14867354  0.48276903  0.89320000    -0.03200
C145        C  0.13352343  0.46464614  0.84594743     0.05400
C146        C  0.12197059  0.42138578  0.85032452     0.03500
H147        H  0.15862342  0.51565699  0.90517344     0.08600
H148        H  0.10758781  0.39637672  0.82148464     0.07500
N149        N  0.00407099  0.84953148  0.92256226    -0.26900
N150        N  0.01871236  0.88617681  0.89698852    -0.34800
C151        C  0.02216767  0.87834118  0.84784103     0.01400
C152        C  0.00841093  0.83451535  0.84228070     0.07500
C153        C  0.99705821  0.81724367  0.89032192    -0.05600
H154        H  0.03425427  0.90281102  0.81852747     0.08100
H155        H  0.98668136  0.78414903  0.90147134     0.09300
Cu156      Cu  0.03371288  0.94479999  0.93105594     0.44200
Cu157      Cu  0.00059308  0.84627929  0.00085639     0.42000
Cu158      Cu  0.04494149  0.94836642  0.06826937     0.43900
N159        N  0.04354139  0.99710704  0.97573278    -0.34300
N160        N  0.04824256  0.99872590  0.02546781    -0.28500
C161        C  0.05408913  0.03706827  0.04256634    -0.04600
C162        C  0.05267415  0.06030454  0.00162471     0.07600
C163        C  0.04611169  0.03427138  0.95990001     0.01400
H164        H  0.05925959  0.04733886  0.08174681     0.09000
H165        H  0.04394792  0.04199811  0.92087034     0.08100
N166        N  0.03069339  0.89024343  0.10242044    -0.35700
N167        N  0.01222477  0.85250222  0.07816095    -0.27900
C168        C  0.00576816  0.82084297  0.11077399    -0.03200
C169        C  0.02126390  0.83962324  0.15767630     0.05400
C170        C  0.03697420  0.88369090  0.15101873     0.03500
H171        H  0.99206471  0.78688317  0.10062543     0.08600
H172        H  0.05171373  0.90910337  0.17935949     0.07500
O173        O  0.05266209  0.59028839  0.44662981    -0.72600
O174        O  0.02184845  0.65060277  0.55457793    -0.73500
O175        O  0.02316988  0.65148832  0.44629565    -0.62200
O176        O  0.05116789  0.58920071  0.55330882    -0.70600
O177        O  0.11943758  0.64408607  0.55551623    -0.70100
O178        O  0.09149346  0.70626165  0.44849761    -0.61400
O179        O  0.09025561  0.70522933  0.55451641    -0.73900
O180        O  0.12096757  0.64511410  0.44691510    -0.72700
Cu181      Cu  0.03478913  0.61848549  0.50012878     1.04600
Cu182      Cu  0.10797724  0.67695301  0.50140433     1.04300
C183        C  0.09154979  0.60828121  0.42967723     0.93600
C184        C  0.05133158  0.68768686  0.57120251     0.92800
C185        C  0.05286850  0.68875690  0.43079456     0.84900
C186        C  0.08960791  0.60711927  0.57161742     0.91200
C187        C  0.03264118  0.15572119  0.99802806     0.02700
C188        C  0.07582080  0.19091880  0.99583590     0.02700
C189        C  0.11130960  0.18343402  0.99604153     0.02700
C190        C  0.10358631  0.14050660  0.99912268     0.02700
C191        C  0.06048933  0.10521527  0.00147519     0.02700
C192        C  0.02500151  0.11275742  0.00112862     0.02700
C193        C  0.03199964  0.79935742  0.72586556     0.20700
C194        C  0.05652471  0.80308990  0.68264342    -0.39200
C195        C  0.04531329  0.76393537  0.65761770     0.19700
C196        C  0.01167896  0.72408235  0.67372080     0.22300
C197        C  0.98744265  0.72027910  0.71735420    -0.39700
C198        C  0.99920522  0.75942159  0.74296158     0.21100
N199        N  0.03803989  0.83143017  0.75788816    -0.32900
C200        C  0.00954980  0.81168767  0.79622569    -0.10500
C201        C  0.98465947  0.76682110  0.78821661    -0.29300
N202        N  0.00843669  0.69165805  0.64404484    -0.45900
C203        C  0.04084005  0.71110074  0.60955279    -0.05200
C204        C  0.06443687  0.75607436  0.61677600    -0.22600
H205        H  0.08320823  0.83406842  0.67023429     0.19300
H206        H  0.96216974  0.68905989  0.73115130     0.18100
H207        H  0.96019699  0.74275367  0.81294874     0.14300
H208        H  0.09234938  0.77972877  0.59550218     0.14200
H209        H  0.06158132  0.86437830  0.75512955     0.32400
H210        H  0.98672035  0.65835920  0.64813882     0.35100
C211        C  0.01056550  0.76593459  0.25575468     0.20700
C212        C  0.99604692  0.72522765  0.27836652    -0.39200
C213        C  0.01628298  0.72589573  0.32414036     0.19700
C214        C  0.04885285  0.76418701  0.34537970     0.22300
C215        C  0.06279052  0.80496793  0.32326327    -0.39700
C216        C  0.04225781  0.80432497  0.27773138     0.21100
N217        N  0.99851552  0.77374571  0.21067836    -0.32900
C218        C  0.02246539  0.81743812  0.20404586    -0.10500
C219        C  0.04984186  0.83771133  0.24529327    -0.29300
N220        N  0.06536301  0.75578277  0.38664933    -0.45900
C221        C  0.04286454  0.71191063  0.39199857    -0.05200
C222        C  0.01162133  0.69210357  0.35409609    -0.22600
H223        H  0.97168779  0.69515665  0.26087763     0.19300
H224        H  0.08860788  0.83485095  0.33952732     0.18100
H225        H  0.07346055  0.87195271  0.24988111     0.14300
H226        H  0.99003704  0.65758822  0.34788230     0.14200
H227        H  0.97598405  0.75068138  0.18560585     0.32400
H228        H  0.09095275  0.77839470  0.40922490     0.35100
C229        C  0.09753326  0.53483232  0.34182873     0.20700
C230        C  0.08491183  0.49437392  0.31922263    -0.39200
C231        C  0.10792603  0.49560861  0.27558815     0.19700
C232        C  0.14062217  0.53426452  0.25560708     0.22300
C233        C  0.15365900  0.57473335  0.27860859    -0.39700
C234        C  0.13102423  0.57344648  0.32271883     0.21100
N235        N  0.07959498  0.54245228  0.38245847    -0.32900
C236        C  0.10215570  0.58613733  0.38979743    -0.10500
C237        C  0.13471585  0.60666457  0.35349177    -0.29300
N238        N  0.15547657  0.52685941  0.21212164    -0.45900
C239        C  0.13225777  0.48317774  0.20458176    -0.05200
C240        C  0.10254903  0.46251833  0.24361698    -0.22600
H241        H  0.05858582  0.46422323  0.33402798     0.19300
H242        H  0.17903782  0.60500929  0.26287311     0.18100
H243        H  0.15702057  0.64123804  0.34924275     0.14300
H244        H  0.07886082  0.42820744  0.24695592     0.14200
H245        H  0.05343286  0.51937625  0.40377940     0.32400
H246        H  0.17931102  0.55018592  0.18852928     0.35100
C247        C  0.13298150  0.53624296  0.75198344     0.20700
C248        C  0.14517029  0.57632394  0.72909858    -0.39200
C249        C  0.12470607  0.57400545  0.68296333     0.19700
C250        C  0.09372995  0.53479076  0.66182919     0.22300
C251        C  0.08188707  0.49464599  0.68444045    -0.39700
C252        C  0.10301958  0.49694789  0.73009978     0.21100
N253        N  0.14755700  0.52971976  0.79602991    -0.32900
C254        C  0.12722863  0.48595719  0.80187194    -0.10500
C255        C  0.09925196  0.46435454  0.76148623    -0.29300
N256        N  0.07769035  0.54155153  0.61901128    -0.45900
C257        C  0.09915045  0.58530914  0.61249241    -0.05200
C258        C  0.12891270  0.60667070  0.65139965    -0.22600
H259        H  0.16878199  0.60704670  0.74602115     0.19300
H260        H  0.05792686  0.46393563  0.66780442     0.18100
H261        H  0.07847019  0.42959062  0.75622531     0.14300
H262        H  0.14962274  0.64143386  0.65677115     0.14200
H263        H  0.17017183  0.55356461  0.82041303     0.32400
H264        H  0.05348751  0.51794183  0.59580622     0.35100
C265        C  0.39299389  0.08565851  0.74754799     0.20700
C266        C  0.42078755  0.07334660  0.72412905    -0.39200
C267        C  0.44050970  0.09523055  0.67911052     0.19700
C268        C  0.43355086  0.12736275  0.65945933     0.22300
C269        C  0.40522604  0.13912832  0.68239665    -0.39700
C270        C  0.38506182  0.11684296  0.72696340     0.21100
N271        N  0.37198501  0.07133859  0.79181314    -0.32900
C272        C  0.35016765  0.09322937  0.79911286    -0.10500
C273        C  0.35724468  0.12163962  0.75926632    -0.29300
N274        N  0.45813299  0.14514385  0.61816292    -0.45900
C275        C  0.48049130  0.12382698  0.61099315    -0.05200
C276        C  0.47015970  0.09220762  0.64800935    -0.22600
H277        H  0.42720383  0.04911671  0.74024625     0.19300
H278        H  0.39991268  0.16436880  0.66717244     0.18100
H279        H  0.34510401  0.14405158  0.75547409     0.14300
H280        H  0.48376534  0.07109639  0.65261174     0.14200
H281        H  0.37286232  0.04850527  0.81585393     0.32400
H282        H  0.45993674  0.17052978  0.59644185     0.35100
C283        C  0.43272574  0.12546580  0.34163750     0.20700
C284        C  0.40492701  0.13798564  0.31911261    -0.39200
C285        C  0.38228568  0.11408371  0.27622204     0.19700
C286        C  0.38759103  0.08078109  0.25663863     0.22300
C287        C  0.41502232  0.06784182  0.27959200    -0.39700
C288        C  0.43711945  0.09128805  0.32315558     0.21100
N289        N  0.45877783  0.14405427  0.38175055    -0.32900
C290        C  0.47956058  0.12129956  0.38953385    -0.10500
C291        C  0.46675741  0.08787643  0.35391588    -0.29300
N292        N  0.36470901  0.06526434  0.21359122    -0.45900
C293        C  0.34438467  0.08855616  0.20612128    -0.05200
C294        C  0.35420710  0.11902674  0.24465481    -0.22600
H295        H  0.40166907  0.16482304  0.33351426     0.19300
H296        H  0.41932532  0.04190642  0.26425126     0.18100
H297        H  0.47857698  0.06518280  0.35007412     0.14300
H298        H  0.34399839  0.14303823  0.24772648     0.14200
H299        H  0.46240952  0.17082128  0.40247405     0.32400
H300        H  0.36368015  0.04096623  0.19019022     0.35100
C301        C  0.75002224  0.22549104  0.75076522     0.20700
C302        C  0.72134051  0.23703711  0.72823499    -0.39200
C303        C  0.70420682  0.21773543  0.68099141     0.19700
C304        C  0.71443474  0.18869221  0.65843525     0.22300
C305        C  0.74363904  0.17778289  0.68050344    -0.39700
C306        C  0.76112651  0.19744732  0.72733690     0.21100
N307        N  0.76949843  0.23805884  0.79626116    -0.32900
C308        C  0.79359552  0.21829364  0.80148108    -0.10500
C309        C  0.78927089  0.19281974  0.75914417    -0.29300
N310        N  0.69130483  0.17209712  0.61578703    -0.45900
C311        C  0.66644991  0.19096048  0.61072081    -0.05200
C312        C  0.67394544  0.22008134  0.65030184    -0.22600
H313        H  0.71234942  0.25872856  0.74658290     0.19300
H314        H  0.75145816  0.15491243  0.66298580     0.18100
H315        H  0.80391131  0.17276857  0.75297140     0.14300
H316        H  0.65767403  0.23853492  0.65712824     0.14200
H317        H  0.76653431  0.25874516  0.82215141     0.32400
H318        H  0.69163319  0.14859335  0.59212865     0.35100
C319        C  0.76095612  0.22735074  0.26106982     0.20700
C320        C  0.73482726  0.24161568  0.28476238    -0.39200
C321        C  0.71170916  0.21786487  0.32742925     0.19700
C322        C  0.71422945  0.18242224  0.34478764     0.22300
C323        C  0.74095232  0.16868003  0.32169896    -0.39700
C324        C  0.76428006  0.19260070  0.27930192     0.21100
N325        N  0.78324205  0.24207798  0.21764946    -0.32900
C326        C  0.80099230  0.21663766  0.20828915    -0.10500
C327        C  0.79035627  0.18576496  0.24627442    -0.29300
N328        N  0.68684616  0.16344954  0.38364080    -0.45900
C329        C  0.66702589  0.18717234  0.39150486    -0.05200
C330        C  0.68189726  0.22164003  0.35745173    -0.22600
H331        H  0.73167720  0.26835703  0.27012822     0.19300
H332        H  0.74239887  0.14056825  0.33482035     0.18100
H333        H  0.79839861  0.16011579  0.24789406     0.14300
H334        H  0.67117297  0.24520812  0.35396999     0.14200
H335        H  0.78507901  0.26697462  0.19495601     0.32400
H336        H  0.68156943  0.13572030  0.40326652     0.35100
C337        C  0.72164919  0.83717620  0.72553103     0.20700
C338        C  0.72615442  0.81568498  0.68322906    -0.39200
C339        C  0.68749755  0.78772179  0.65719441     0.19700
C340        C  0.64752435  0.78229578  0.67150120     0.22300
C341        C  0.64298786  0.80353405  0.71403027    -0.39700
C342        C  0.68149723  0.83077105  0.74070316     0.21100
N343        N  0.75288655  0.86299675  0.75858772    -0.32900
C344        C  0.73230532  0.87226555  0.79566802    -0.10500
C345        C  0.68780895  0.85292910  0.78571565    -0.29300
N346        N  0.61557964  0.75285922  0.64156005    -0.45900
C347        C  0.63521739  0.73878266  0.60860480    -0.05200
C348        C  0.68008146  0.75988111  0.61708436    -0.22600
H349        H  0.75724354  0.81934969  0.67238160     0.19300
H350        H  0.61157201  0.79810698  0.72642757     0.18100
H351        H  0.66319754  0.85375885  0.80913531     0.14300
H352        H  0.70392012  0.75493404  0.59712235     0.14200
H353        H  0.78569757  0.87183594  0.75738926     0.32400
H354        H  0.58227084  0.74187137  0.64449313     0.35100
C355        C  0.71737167  0.84188947  0.27787055     0.20700
C356        C  0.72255842  0.82359098  0.32242370    -0.39200
C357        C  0.68394946  0.79261348  0.34598536     0.19700
C358        C  0.64318901  0.78143136  0.32731759     0.22300
C359        C  0.63798709  0.79948872  0.28248732    -0.39700
C360        C  0.67666501  0.82982852  0.25831303     0.21100
N361        N  0.74896252  0.86938275  0.24646509    -0.32900
C362        C  0.72832342  0.87421008  0.20602278    -0.10500
C363        C  0.68317285  0.85027185  0.21221271    -0.29300
N364        N  0.61169797  0.75009798  0.35576902    -0.45900
C365        C  0.63261966  0.74061928  0.39205134    -0.05200
C366        C  0.67768069  0.76650870  0.38724965    -0.22600
H367        H  0.75434700  0.83171434  0.33669373     0.19300
H368        H  0.60620315  0.78952065  0.26667013     0.18100
H369        H  0.65844364  0.84682483  0.18564778     0.14300
H370        H  0.70247159  0.76574448  0.41031971     0.14200
H371        H  0.78241628  0.88212094  0.25102541     0.32400
H372        H  0.57810079  0.73483392  0.34969266     0.35100
C373        C  0.42351485  0.44828355  0.72115955     0.20700
C374        C  0.41896190  0.47012640  0.67957008    -0.39200
C375        C  0.45767332  0.49935397  0.65479661     0.19700
C376        C  0.49790830  0.50583027  0.66962785     0.22300
C377        C  0.50254853  0.48434584  0.71172978    -0.39700
C378        C  0.46379894  0.45560772  0.73712706     0.21100
N379        N  0.39192962  0.42102304  0.75270659    -0.32900
C380        C  0.41216369  0.41157823  0.78983437    -0.10500
C381        C  0.45704137  0.43236527  0.78129101    -0.29300
N382        N  0.52971065  0.53591450  0.64019024    -0.45900
C383        C  0.50955481  0.54917171  0.60703154    -0.03400
C384        C  0.46465796  0.52711358  0.61507552    -0.22600
H385        H  0.38764090  0.46553816  0.66813355     0.19300
H386        H  0.53407911  0.49041213  0.72455071     0.18100
H387        H  0.48154653  0.43187218  0.80516977     0.14300
H388        H  0.44042794  0.53116214  0.59482294     0.14200
H389        H  0.35890185  0.41139873  0.75060713     0.32400
H390        H  0.56310157  0.54763388  0.64339374     0.35100
C391        C  0.45843748  0.46185619  0.25183555     0.20700
C392        C  0.49833193  0.48725458  0.27710162    -0.39200
C393        C  0.49700928  0.51019468  0.31994892     0.19700
C394        C  0.45894331  0.50836059  0.33586265     0.22300
C395        C  0.41901122  0.48247409  0.31111331    -0.39700
C396        C  0.42022186  0.45912388  0.26877410     0.21100
N397        N  0.45133509  0.43876372  0.20882794    -0.32900
C398        C  0.40820384  0.42085018  0.19866502    -0.10500
C399        C  0.38767050  0.43249353  0.23550701    -0.29300
N400        N  0.46655234  0.53471574  0.37590112    -0.45900
C401        C  0.50967887  0.55317596  0.38615499    -0.05200
C402        C  0.52979390  0.53849863  0.35219876    -0.22600
H403        H  0.52830119  0.48955831  0.26389630     0.19300
H404        H  0.38927674  0.48116302  0.32344865     0.18100
H405        H  0.35387078  0.42418892  0.23655665     0.14300
H406        H  0.56394594  0.54815672  0.35049886     0.14200
H407        H  0.47446772  0.43590002  0.18732303     0.32400
H408        H  0.44379840  0.53999312  0.39498759     0.35100
loop_ 
_geom_bond_atom_site_label_1 
_geom_bond_atom_site_label_2 
_geom_bond_distance 
_geom_bond_site_symmetry_2 
_ccdc_geom_bond_type 
N1            N2   1.322       .  A
N1            C5   1.348       .  A
N1           Cu9   2.086   1_554  S
N2            C3   1.346       .  A
N2           Cu8   2.079       .  S
C3            C4   1.385       .  A
C3            H6   1.082       .  S
C4            C5   1.385       .  A
C4          C398   1.478       .  S
C5            H7   1.082       .  S
Cu8          N11   2.079       .  S
Cu9          N19   2.086       .  S
Cu10         N12   2.084       .  S
Cu10         N18   2.085       .  S
N11          N12   1.323   1_554  A
N11          C15   1.346       .  A
N12          C13   1.348       .  A
C13          C14   1.383       .  A
C13          H16   1.082       .  S
C14          C15   1.381   1_556  A
C14         C189   1.482       .  S
C15          H17   1.082       .  S
N18          N19   1.324       .  A
N18          C22   1.347       .  A
N19          C20   1.347       .  A
C20          C21   1.384       .  A
C20          H23   1.082       .  S
C21          C22   1.385       .  A
C21         C380   1.478       .  S
C22          H24   1.082       .  S
N25          N26   1.322       .  A
N25          C29   1.346       .  A
N25         Cu33   2.082   1_556  S
N26          C27   1.346       .  A
N26         Cu32   2.072       .  S
C27          C28   1.383       .  A
C27          H30   1.082       .  S
C28          C29   1.384       .  A
C28         C344   1.474       .  S
C29          H31   1.082       .  S
Cu32         N35   2.072   1_565  S
Cu33         N43   2.082       .  S
Cu34         N36   2.083   1_565  S
Cu34         N42   2.083       .  S
N35          N36   1.324   1_556  A
N35          C39   1.344       .  A
N36          C37   1.347       .  A
C37          C38   1.382       .  A
C37          H40   1.082       .  S
C38          C39   1.379   1_554  A
C38         C192   1.478   1_655  S
C39          H41   1.082       .  S
N42          N43   1.323       .  A
N42          C46   1.347       .  A
N43          C44   1.346       .  A
C44          C45   1.384       .  A
C44          H47   1.082       .  S
C45          C46   1.385       .  A
C45         C362   1.477       .  S
C46          H48   1.082       .  S
O49         Cu57   2.013       .  S
O49          C59   1.278       .  A
O50         Cu57   2.031       .  S
O50          C60   1.280       .  A
O51         Cu57   2.026       .  S
O51          C61   1.279       .  A
O52         Cu57   2.008       .  S
O52          C62   1.277       .  A
O53         Cu58   2.027       .  S
O53          C62   1.279       .  A
O54         Cu58   2.014       .  S
O54          C61   1.278       .  A
O55         Cu58   2.011       .  S
O55          C60   1.278       .  A
O56         Cu58   2.019       .  S
O56          C59   1.278       .  A
Cu57        Cu58   2.374       .  S
C59         C365   1.472       .  S
C60         C383   1.477       .  S
C61         C401   1.477       .  S
C62         C347   1.475       .  S
N63          N64   1.323       .  A
N63          C67   1.346       .  A
N63         Cu71   2.079       .  S
N64          C65   1.346       .  A
N64         Cu70   2.076       .  S
C65          C66   1.384       .  A
C65          H68   1.082       .  S
C66          C67   1.384       .  A
C66         C326   1.474       .  S
C67          H69   1.082       .  S
Cu70         N73   2.076       .  S
Cu71         N81   2.079   1_554  S
Cu72         N74   2.085       .  S
Cu72         N80   2.085       .  S
N73          N74   1.323   1_554  A
N73          C77   1.346       .  A
N74          C75   1.347       .  A
C75          C76   1.384       .  A
C75          H78   1.082       .  S
C76          C77   1.381   1_556  A
C76         C187   1.484   1_655  S
C77          H79   1.082       .  S
N80          N81   1.323       .  A
N80          C84   1.346       .  A
N81          C82   1.347       .  A
C82          C83   1.384       .  A
C82          H85   1.082       .  S
C83          C84   1.385       .  A
C83         C308   1.478       .  S
C84          H86   1.082       .  S
N87          N88   1.323       .  A
N87          C91   1.344       .  A
N87         Cu95   2.073       .  S
N88          C89   1.346       .  A
N88         Cu94   2.077       .  S
C89          C90   1.385       .  A
C89          H92   1.082       .  S
C90          C91   1.381       .  A
C90         C293   1.472       .  S
C91          H93   1.082       .  S
Cu94         N97   2.077       .  S
Cu95        N105   2.073   1_554  S
Cu96         N98   2.078       .  S
Cu96        N104   2.078       .  S
N97          N98   1.324   1_554  A
N97         C101   1.345       .  A
N98          C99   1.346       .  A
C99         C100   1.380       .  A
C99         H102   1.082       .  S
C100        C101   1.380   1_556  A
C100        C190   1.478       .  S
C101        H103   1.082       .  S
N104        N105   1.322       .  A
N104        C108   1.346       .  A
N105        C106   1.346       .  A
C106        C107   1.383       .  A
C106        H109   1.082       .  S
C107        C108   1.384       .  A
C107        C272   1.473       .  S
C108        H110   1.082       .  S
O111       Cu119   2.003       .  S
O111        C121   1.276       .  A
O112       Cu119   2.019       .  S
O112        C122   1.278       .  A
O113       Cu119   2.022       .  S
O113        C123   1.279       .  A
O114       Cu119   2.009       .  S
O114        C124   1.277       .  A
O115       Cu120   2.018       .  S
O115        C124   1.278       .  A
O116       Cu120   2.000       .  S
O116        C123   1.276       .  A
O117       Cu120   2.011       .  S
O117        C122   1.278       .  A
O118       Cu120   2.027       .  S
O118        C121   1.279       .  A
Cu119      Cu120   2.375       .  S
C121        C290   1.472       .  S
C122        C311   1.472       .  S
C123        C329   1.470       .  S
C124        C275   1.471       .  S
N125        N126   1.322       .  A
N125        C129   1.344       .  A
N125       Cu133   2.073       .  S
N126        C127   1.345       .  A
N126       Cu132   2.068       .  S
C127        C128   1.383       .  A
C127        H130   1.082       .  S
C128        C129   1.383       .  A
C128        C239   1.471       .  S
C129        H131   1.082       .  S
Cu132       N135   2.067       .  S
Cu133       N143   2.074   1_554  S
Cu134       N136   2.059       .  S
Cu134       N142   2.059       .  S
N135        N136   1.323   1_554  A
N135        C139   1.343       .  A
N136        C137   1.343       .  A
C137        C138   1.377       .  A
C137        H140   1.082       .  S
C138        C139   1.378   1_556  A
C138        C188   1.468       .  S
C139        H141   1.082       .  S
N142        N143   1.322       .  A
N142        C146   1.343       .  A
N143        C144   1.345       .  A
C144        C145   1.383       .  A
C144        H147   1.082       .  S
C145        C146   1.381       .  A
C145        C254   1.469       .  S
C146        H148   1.082       .  S
N149        N150   1.322       .  A
N149        C153   1.344   1_455  A
N149       Cu157   2.075   1_556  S
N150        C151   1.346       .  A
N150       Cu156   2.072       .  S
C151        C152   1.384       .  A
C151        H154   1.082       .  S
C152        C153   1.382   1_455  A
C152        C200   1.471       .  S
C153        H155   1.082       .  S
Cu156       N159   2.072       .  S
Cu157       N167   2.075       .  S
Cu158       N160   2.072       .  S
Cu158       N166   2.072       .  S
N159        N160   1.323   1_556  A
N159        C163   1.344   1_565  A
N160        C161   1.345   1_565  A
C161        C162   1.380       .  A
C161        H164   1.082       .  S
C162        C163   1.379   1_554  A
C162        C191   1.474       .  S
C163        H165   1.082       .  S
N166        N167   1.322       .  A
N166        C170   1.346       .  A
N167        C168   1.345       .  A
C168        C169   1.383       .  A
C168        H171   1.082   1_455  S
C169        C170   1.384       .  A
C169        C218   1.472       .  S
C170        H172   1.082       .  S
O173       Cu181   2.006       .  S
O173        C183   1.277       .  A
O174       Cu181   2.023       .  S
O174        C184   1.279       .  A
O175       Cu181   2.017       .  S
O175        C185   1.278       .  A
O176       Cu181   2.003       .  S
O176        C186   1.276       .  A
O177       Cu182   2.016       .  S
O177        C186   1.278       .  A
O178       Cu182   2.001       .  S
O178        C185   1.276       .  A
O179       Cu182   1.998       .  S
O179        C184   1.276       .  A
O180       Cu182   2.018       .  S
O180        C183   1.278       .  A
Cu181      Cu182   2.377       .  S
C183        C236   1.469       .  S
C184        C203   1.469       .  S
C185        C221   1.467       .  S
C186        C257   1.467       .  S
C187        C188   1.412       .  A
C187        C192   1.411   1_556  A
C188        C189   1.411       .  A
C189        C190   1.408       .  A
C190        C191   1.411   1_556  A
C191        C192   1.412       .  A
C193        N199   1.344       .  A
C193        C198   1.385   1_455  A
C193        C194   1.402       .  A
C194        C195   1.402       .  A
C194        H205   1.082       .  S
C195        C204   1.375       .  A
C195        C196   1.385       .  A
C196        N202   1.346       .  A
C196        C197   1.404   1_455  A
C197        C198   1.404       .  A
C197        H206   1.082       .  S
C198        C201   1.378       .  A
N199        C200   1.355       .  A
N199        H209   1.045       .  S
C200        C201   1.395   1_455  A
C201        H207   1.082       .  S
N202        C203   1.356       .  A
N202        H210   1.044   1_455  S
C203        C204   1.394       .  A
C204        H208   1.082       .  S
C211        N217   1.343   1_455  A
C211        C216   1.384       .  A
C211        C212   1.403   1_455  A
C212        C213   1.402   1_655  A
C212        H223   1.082       .  S
C213        C222   1.379       .  A
C213        C214   1.385       .  A
C214        N220   1.343       .  A
C214        C215   1.403       .  A
C215        C216   1.402       .  A
C215        H224   1.082       .  S
C216        C219   1.378       .  A
N217        C218   1.356   1_655  A
N217        H227   1.044       .  S
C218        C219   1.395       .  A
C219        H225   1.082       .  S
N220        C221   1.355       .  A
N220        H228   1.045       .  S
C221        C222   1.394       .  A
C222        H226   1.082   1_455  S
C229        N235   1.342       .  A
C229        C234   1.385       .  A
C229        C230   1.402       .  A
C230        C231   1.401       .  A
C230        H241   1.082       .  S
C231        C240   1.377       .  A
C231        C232   1.384       .  A
C232        N238   1.343       .  A
C232        C233   1.404       .  A
C233        C234   1.403       .  A
C233        H242   1.082       .  S
C234        C237   1.380       .  A
N235        C236   1.354       .  A
N235        H245   1.045       .  S
C236        C237   1.396       .  A
C237        H243   1.082       .  S
N238        C239   1.356       .  A
N238        H246   1.045       .  S
C239        C240   1.394       .  A
C240        H244   1.082       .  S
C247        N253   1.342       .  A
C247        C252   1.385       .  A
C247        C248   1.402       .  A
C248        C249   1.401       .  A
C248        H259   1.082       .  S
C249        C258   1.377       .  A
C249        C250   1.385       .  A
C250        N256   1.343       .  A
C250        C251   1.403       .  A
C251        C252   1.402       .  A
C251        H260   1.082       .  S
C252        C255   1.377       .  A
N253        C254   1.354       .  A
N253        H263   1.045       .  S
C254        C255   1.395       .  A
C255        H261   1.082       .  S
N256        C257   1.355       .  A
N256        H264   1.045       .  S
C257        C258   1.393       .  A
C258        H262   1.082       .  S
C265        N271   1.345       .  A
C265        C270   1.384       .  A
C265        C266   1.405       .  A
C266        C267   1.404       .  A
C266        H277   1.082       .  S
C267        C276   1.380       .  A
C267        C268   1.385       .  A
C268        N274   1.343       .  A
C268        C269   1.403       .  A
C269        C270   1.402       .  A
C269        H278   1.082       .  S
C270        C273   1.378       .  A
N271        C272   1.356       .  A
N271        H281   1.045       .  S
C272        C273   1.394       .  A
C273        H279   1.082       .  S
N274        C275   1.355       .  A
N274        H282   1.045       .  S
C275        C276   1.396       .  A
C276        H280   1.082       .  S
C283        N289   1.342       .  A
C283        C288   1.385       .  A
C283        C284   1.402       .  A
C284        C285   1.401       .  A
C284        H295   1.082       .  S
C285        C294   1.378       .  A
C285        C286   1.384       .  A
C286        N292   1.344       .  A
C286        C287   1.406       .  A
C287        C288   1.405       .  A
C287        H296   1.082       .  S
C288        C291   1.383       .  A
N289        C290   1.355       .  A
N289        H299   1.045       .  S
C290        C291   1.397       .  A
C291        H297   1.082       .  S
N292        C293   1.356       .  A
N292        H300   1.045       .  S
C293        C294   1.394       .  A
C294        H298   1.082       .  S
C301        N307   1.346       .  A
C301        C306   1.384       .  A
C301        C302   1.407       .  A
C302        C303   1.406       .  A
C302        H313   1.082       .  S
C303        C312   1.382       .  A
C303        C304   1.385       .  A
C304        N310   1.343       .  A
C304        C305   1.403       .  A
C305        C306   1.402       .  A
C305        H314   1.082       .  S
C306        C309   1.378       .  A
N307        C308   1.357       .  A
N307        H317   1.045       .  S
C308        C309   1.395       .  A
C309        H315   1.082       .  S
N310        C311   1.355       .  A
N310        H318   1.045       .  S
C311        C312   1.396       .  A
C312        H316   1.082       .  S
C319        N325   1.344       .  A
C319        C324   1.384       .  A
C319        C320   1.405       .  A
C320        C321   1.404       .  A
C320        H331   1.082       .  S
C321        C330   1.381       .  A
C321        C322   1.385       .  A
C322        N328   1.342       .  A
C322        C323   1.403       .  A
C323        C324   1.402       .  A
C323        H332   1.082       .  S
C324        C327   1.378       .  A
N325        C326   1.356       .  A
N325        H335   1.045       .  S
C326        C327   1.395       .  A
C327        H333   1.082       .  S
N328        C329   1.355       .  A
N328        H336   1.045       .  S
C329        C330   1.395       .  A
C330        H334   1.082       .  S
C337        N343   1.345       .  A
C337        C342   1.385       .  A
C337        C338   1.405       .  A
C338        C339   1.404       .  A
C338        H349   1.082       .  S
C339        C348   1.379       .  A
C339        C340   1.385       .  A
C340        N346   1.346       .  A
C340        C341   1.404       .  A
C341        C342   1.404       .  A
C341        H350   1.082       .  S
C342        C345   1.379       .  A
N343        C344   1.356       .  A
N343        H353   1.043       .  S
C344        C345   1.395       .  A
C345        H351   1.082       .  S
N346        C347   1.356       .  A
N346        H354   1.045       .  S
C347        C348   1.396       .  A
C348        H352   1.082       .  S
C355        N361   1.344       .  A
C355        C360   1.384       .  A
C355        C356   1.404       .  A
C356        C357   1.403       .  A
C356        H367   1.082       .  S
C357        C366   1.378       .  A
C357        C358   1.385       .  A
C358        N364   1.346       .  A
C358        C359   1.406       .  A
C359        C360   1.405       .  A
C359        H368   1.082       .  S
C360        C363   1.380       .  A
N361        C362   1.356       .  A
N361        H371   1.044       .  S
C362        C363   1.397       .  A
C363        H369   1.082       .  S
N364        C365   1.356       .  A
N364        H372   1.045       .  S
C365        C366   1.395       .  A
C366        H370   1.082       .  S
C373        N379   1.344       .  A
C373        C378   1.384       .  A
C373        C374   1.403       .  A
C374        C375   1.403       .  A
C374        H385   1.082       .  S
C375        C384   1.378       .  A
C375        C376   1.384       .  A
C376        N382   1.348       .  A
C376        C377   1.408       .  A
C377        C378   1.407       .  A
C377        H386   1.082       .  S
C378        C381   1.383       .  A
N379        C380   1.355       .  A
N379        H389   1.045       .  S
C380        C381   1.398       .  A
C381        H387   1.082       .  S
N382        C383   1.358       .  A
N382        H390   1.044       .  S
C383        C384   1.395       .  A
C384        H388   1.082       .  S
C391        N397   1.347       .  A
C391        C396   1.384       .  A
C391        C392   1.407       .  A
C392        C393   1.407       .  A
C392        H403   1.082       .  S
C393        C402   1.383       .  A
C393        C394   1.384       .  A
C394        N400   1.344       .  A
C394        C395   1.404       .  A
C395        C396   1.403       .  A
C395        H404   1.082       .  S
C396        C399   1.379       .  A
N397        C398   1.357       .  A
N397        H407   1.044       .  S
C398        C399   1.395       .  A
C399        H405   1.082       .  S
N400        C401   1.356       .  A
N400        H408   1.045       .  S
C401        C402   1.398       .  A
C402        H406   1.082       .  S
