geometry optimzed in LAMMPS
_audit_creation_date              2020-11-30 
_audit_creation_method            'lammps2cif' 
_symmetry_space_group_name_H-M    'P1' 
_symmetry_Int_Tables_number       1 
_symmetry_cell_setting            triclinic 
loop_ 
_symmetry_equiv_pos_as_xyz 
  x,y,z 
_cell_length_a                    44.87281365 
_cell_length_b                    48.33974761736814 
_cell_length_c                    37.424574988345185 
_cell_angle_alpha                 89.90002583989384 
_cell_angle_beta                  89.39302013436247 
_cell_angle_gamma                 122.2267965681733 
loop_ 
_atom_site_label 
_atom_site_type_symbol 
_atom_site_fract_x 
_atom_site_fract_y 
_atom_site_fract_z 
_atom_site_charge 
C1          C  0.42803092  0.36650727  0.37184816     0.83100
N2          N  0.39520414  0.35627111  0.35992735    -0.75200
C3          C  0.38091312  0.33371204  0.33352341     0.85500
N4          N  0.39928701  0.32130022  0.31942221    -0.75200
C5          C  0.43199244  0.33159865  0.33131642     0.85600
N6          N  0.44631130  0.35408574  0.35758967    -0.76900
C7          C  0.35339374  0.44520489  0.22857420     0.83100
N8          N  0.33981618  0.46279924  0.24053586    -0.75200
C9          C  0.31159737  0.44897528  0.26324189     0.85500
N10         N  0.29657633  0.41719932  0.27363181    -0.75200
C11         C  0.31011758  0.39948876  0.26167124     0.85600
N12         N  0.33835940  0.41350528  0.23897350    -0.76900
C13         C  0.14019239  0.08933395  0.34476063     0.83100
N14         N  0.15498053  0.07241116  0.33412099    -0.75200
C15         C  0.18338987  0.08646783  0.31166891     0.85500
N16         N  0.19737370  0.11783960  0.30020978    -0.75200
C17         C  0.18258670  0.13486733  0.31085920     0.85600
N18         N  0.15418851  0.12060992  0.33332773    -0.76900
C19         C  0.28006921  0.28743276  0.29843063     0.05200
C20         C  0.26276728  0.30133539  0.28221814     0.05100
C21         C  0.22839703  0.28072462  0.26973480    -0.15400
C22         C  0.21108467  0.24656983  0.27314101     0.05200
C23         C  0.22838432  0.23265728  0.28937813     0.05100
C24         C  0.26276195  0.25328401  0.30186418    -0.15400
H25         H  0.27616691  0.24268466  0.31437422     0.07200
H26         H  0.21501098  0.29134319  0.25722616     0.07200
C27         C  0.06245352  0.16865891  0.20074372     0.83100
N28         N  0.09531687  0.17857422  0.21224057    -0.75200
C29         C  0.11036731  0.20150399  0.23817391     0.85500
N30         N  0.09268627  0.21459706  0.25229001    -0.75200
C31         C  0.05993046  0.20464553  0.24084251     0.85600
N32         N  0.04482825  0.18176139  0.21499990    -0.76900
C33         C  0.06832906  0.43405667  0.19909473     0.83100
N34         N  0.10051462  0.45669470  0.21198509    -0.75200
C35         C  0.11417036  0.44872529  0.23945331     0.85500
N36         N  0.09579238  0.41814170  0.25374590    -0.75200
C37         C  0.06364618  0.39564203  0.24092141     0.85600
N38         N  0.04994919  0.40356145  0.21355597    -0.76900
C39         C  0.43160501  0.10407164  0.37394021     0.83100
N40         N  0.44837627  0.13456304  0.35951015    -0.75200
C41         C  0.43271218  0.14181154  0.33357148     0.85500
N42         N  0.40021242  0.11866404  0.32216634    -0.75200
C43         C  0.38337867  0.08810510  0.33647464     0.85600
N44         N  0.39899652  0.08077519  0.36252800    -0.76900
C45         C  0.48144240  0.28624556  0.29713112     0.05200
C46         C  0.01288282  0.30151635  0.27682486     0.05100
C47         C  0.02797329  0.28373390  0.26681588    -0.15400
C48         C  0.01201126  0.25089751  0.27692429     0.05200
C49         C  0.48070352  0.23568735  0.29743517     0.05100
C50         C  0.46557414  0.25344702  0.30741810    -0.15400
H51         H  0.44140617  0.24172442  0.32324111     0.07200
H52         H  0.05212580  0.29544007  0.25096971     0.07200
C53         C  0.26587963  0.00110644  0.28592310     0.05200
C54         C  0.28277460  0.03208207  0.30213229     0.05100
C55         C  0.26514139  0.04881465  0.30527913    -0.15400
C56         C  0.23084182  0.03516205  0.29247435     0.05200
C57         C  0.21392498  0.50410861  0.27643001     0.05100
C58         C  0.23155131  0.48740627  0.27329423    -0.15400
H59         H  0.21845845  0.46356596  0.26079414     0.07200
H60         H  0.27827485  0.07269780  0.31767661     0.07200
Zr61       Zr  0.00785670  0.02193672  0.10676682     2.17500
O62         O  0.04820829  0.03818872  0.15681500    -0.48500
O63         O  0.45788091  0.99695326  0.14869082    -0.71700
O64         O  0.02145303  0.07294303  0.13387782    -0.78400
O65         O  0.01980301  0.45011134  0.09023070    -0.80200
O66         O  0.01396320  0.10379476  0.09330984    -0.75800
O67         O  0.02478781  0.48638258  0.13220291    -0.87400
O68         O  0.40761742  0.47267030  0.11644113    -0.73400
O69         O  0.46544727  0.03073486  0.08074214    -0.82900
O70         O  0.46591061  0.47121281  0.08020682    -0.82600
O71         O  0.04082151  0.06595041  0.06452985    -0.69300
O72         O  0.04011552  0.01098720  0.06341987    -0.81500
Zr73       Zr  0.48654596  0.01254012  0.46706945     2.26400
Zr74       Zr  0.49752992  0.07372503  0.03746202     2.06300
Zr75       Zr  0.49756292  0.46057383  0.03600871     2.10000
Zr76       Zr  0.42387172  0.48019103  0.05369567     1.78800
O77         O  0.04215414  0.44910921  0.01775573    -0.90300
O78         O  0.38411088  0.99977687  0.06050502    -0.38100
O79         O  0.45452991  0.46864391  0.00939202    -0.74700
O80         O  0.45413392  0.02327297  0.01044611    -0.93400
O81         O  0.02895105  0.06299119  0.99346974    -0.86700
O82         O  0.02894110  0.00352573  0.49293502    -0.89600
C83         C  0.42420470  0.48059109  0.14596497     1.04200
C84         C  0.02755848  0.46269653  0.12154266     1.17100
C85         C  0.02197828  0.09866354  0.12438239     1.07900
O86         O  0.45578457  0.08998411  0.05068170    -0.91700
O87         O  0.47868988  0.08635631  0.48214704    -0.87500
O88         O  0.47749418  0.05256157  0.43903018    -0.80600
C89         C  0.47383094  0.07566490  0.44998832     1.14500
O90         O  0.11924693  0.07798059  0.06223500    -0.93700
Zr91       Zr  0.07088320  0.05389735  0.01998277     1.88900
O92         O  0.03592349  0.03709145  0.42461955    -0.70300
O93         O  0.04519974  0.12883062  0.02115335    -0.49600
O94         O  0.10661740  0.11300817  0.01134470    -0.94300
O95         O  0.11104920  0.03481623  0.01218548    -0.51500
O96         O  0.08627134  0.06225170  0.45691299    -0.70900
C97         C  0.06960502  0.05402478  0.42739210     1.01500
O98         O  0.43825970  0.48985343  0.42430684    -0.59700
O99         O  0.45488196  0.40359198  0.05169378    -0.54500
O100        O  0.47498203  0.46318228  0.43820691    -0.91200
O101        O  0.47528582  0.42960353  0.48081343    -0.89600
O102        O  0.38784013  0.42104578  0.06160670    -0.89900
O103        O  0.37480005  0.45496383  0.01246434    -0.88700
C104        C  0.47008329  0.43588797  0.44891059     1.20300
H105        H  0.45505036  0.45382873  0.09782887     0.36300
H106        H  0.43657760  0.02568927  0.99871077     0.47100
H107        H  0.03980442  0.49722129  0.47500622     0.40700
H108        H  0.05842147  0.08556153  0.07646193     0.37100
H109        H  0.36293434  0.48166329  0.07272789     0.28900
H110        H  0.03526775  0.14260213  0.02521224     0.34900
H111        H  0.12714438  0.11701711  0.49661566     0.40800
H112        H  0.36695198  0.41699203  0.07549643     0.35200
H113        H  0.46777572  0.39235277  0.04826180     0.34100
H114        H  0.02979318  0.42495594  0.01815197     0.35800
H115        H  0.12931252  0.05046186  0.49515905     0.34800
H116        H  0.38582042  0.45665582  0.98884631     0.38800
H117        H  0.42290660  0.46630113  0.43029018     0.31500
H118        H  0.03625219  0.04136211  0.17734427     0.35700
H119        H  0.14106985  0.09076283  0.04765625     0.38600
H120        H  0.45140487  0.40333163  0.07788481     0.31200
H121        H  0.42353433  0.49866718  0.43113145     0.44100
H122        H  0.44408708  0.07850989  0.07333058     0.34100
H123        H  0.39523580  0.01714521  0.07870083     0.43200
H124        H  0.09761099  0.01419325  0.49868585     0.33600
H125        H  0.06288972  0.13528778  0.04012609     0.33600
H126        H  0.06849189  0.06030279  0.15068571     0.33900
C127        C  0.44826317  0.09668174  0.40154715    -0.10400
C128        C  0.46143279  0.08909252  0.42430549    -0.12000
C129        C  0.34827368  0.06446099  0.32524263    -0.10400
C130        C  0.31841634  0.04790013  0.31489548    -0.12000
C131        C  0.46391336  0.20211921  0.30887029    -0.10400
C132        C  0.44979248  0.17435809  0.31947794    -0.12000
C133        C  0.05363551  0.44225148  0.17017840    -0.10400
C134        C  0.04118237  0.45008926  0.14688086    -0.12000
C135        C  0.14884156  0.47178101  0.25223272    -0.10400
C136        C  0.17840799  0.48828572  0.26334406    -0.12000
C137        C  0.04495594  0.36301229  0.25501187    -0.10400
C138        C  0.02994098  0.33516824  0.26556940    -0.12000
C139        C  0.03398834  0.12402652  0.15041196    -0.10400
C140        C  0.04647242  0.14462923  0.17320935    -0.12000
C141        C  0.02800420  0.23330121  0.26549425    -0.10400
C142        C  0.04207115  0.21954090  0.25479947    -0.12000
C143        C  0.17545835  0.22678275  0.26028614    -0.10400
C144        C  0.14562330  0.21340126  0.24969213    -0.12000
C145        C  0.09081599  0.06473402  0.39524636    -0.10400
C146        C  0.11196983  0.07529467  0.37083732    -0.12000
C147        C  0.21144589  0.19758129  0.29435009    -0.10400
C148        C  0.19824786  0.16871290  0.30055345    -0.12000
C149        C  0.21359786  0.05324728  0.29675005    -0.10400
C150        C  0.19988355  0.06869401  0.30222485    -0.12000
C151        C  0.40291853  0.46992967  0.17812201    -0.10400
C152        C  0.38165022  0.45924171  0.20246676    -0.12000
C153        C  0.28321093  0.48320536  0.28084154    -0.10400
C154        C  0.29637705  0.46748650  0.27418702    -0.12000
C155        C  0.29355526  0.36538754  0.27128391    -0.10400
C156        C  0.27981594  0.33641885  0.27725027    -0.12000
C157        C  0.44336063  0.38998595  0.39997779    -0.10400
C158        C  0.45643890  0.41025556  0.42307036    -0.12000
C159        C  0.34557663  0.32115882  0.32180421    -0.10400
C160        C  0.31570738  0.30731833  0.31123194    -0.12000
C161        C  0.45043749  0.31712473  0.31782386    -0.10400
C162        C  0.46503082  0.30364247  0.30784880    -0.12000
C163        C  0.42805552  0.36654386  0.87176411     0.83100
N164        N  0.39521885  0.35629150  0.85985877    -0.75200
C165        C  0.38091995  0.33372281  0.83346330     0.85500
N166        N  0.39929735  0.32131390  0.81935825    -0.75200
C167        C  0.43201458  0.33162992  0.83123590     0.85600
N168        N  0.44633877  0.35412831  0.85749796    -0.76900
C169        C  0.35345940  0.44524037  0.72857902     0.83100
N170        N  0.33988231  0.46283601  0.74053562    -0.75200
C171        C  0.31164203  0.44900410  0.76321272     0.85500
N172        N  0.29659747  0.41721886  0.77357674    -0.75200
C173        C  0.31013805  0.39950595  0.76162227     0.85600
N174        N  0.33840369  0.41353159  0.73895432    -0.76900
C175        C  0.14014230  0.08930389  0.84472138     0.83100
N176        N  0.15494490  0.07238619  0.83410988    -0.75200
C177        C  0.18337601  0.08644788  0.81168600     0.85500
N178        N  0.19737027  0.11782418  0.80022969    -0.75200
C179        C  0.18256703  0.13484783  0.81084882     0.85600
N180        N  0.15414474  0.12058055  0.83328646    -0.76900
C181        C  0.28004515  0.28744380  0.79842004     0.05200
C182        C  0.26274565  0.30133869  0.78217961     0.05100
C183        C  0.22837262  0.28071773  0.76970194    -0.15400
C184        C  0.21105712  0.24656237  0.77313411     0.05200
C185        C  0.22835243  0.23265727  0.78940233     0.05100
C186        C  0.26272904  0.25329530  0.80189009    -0.15400
H187        H  0.27613343  0.24270347  0.81441801     0.07200
H188        H  0.21498909  0.29132855  0.75716986     0.07200
C189        C  0.06241461  0.16862491  0.70072948     0.83100
N190        N  0.09529175  0.17855642  0.71219780    -0.75200
C191        C  0.11034592  0.20148115  0.73813658     0.85500
N192        N  0.09265573  0.21455374  0.75228216    -0.75200
C193        C  0.05988666  0.20458501  0.74086386     0.85600
N194        N  0.04477972  0.18170471  0.71501880    -0.76900
C195        C  0.06832695  0.43405117  0.69911478     0.83100
N196        N  0.10051586  0.45668414  0.71200457    -0.75200
C197        C  0.11419426  0.44869446  0.73943377     0.85500
N198        N  0.09583378  0.41809652  0.75368945    -0.75200
C199        C  0.06368382  0.39560355  0.74086819     0.85600
N200        N  0.04996423  0.40354188  0.71354159    -0.76900
C201        C  0.43163817  0.10407300  0.87395444     0.83100
N202        N  0.44839515  0.13456752  0.85953662    -0.75200
C203        C  0.43271817  0.14181467  0.83361241     0.85500
N204        N  0.40022003  0.11866400  0.82220812    -0.75200
C205        C  0.38340009  0.08810029  0.83650146     0.85600
N206        N  0.39903069  0.08077087  0.86254259    -0.76900
C207        C  0.48147844  0.28625780  0.79714154     0.05200
C208        C  0.01291137  0.30149905  0.77682318     0.05100
C209        C  0.02798583  0.28369835  0.76683455    -0.15400
C210        C  0.01201115  0.25086830  0.77696885     0.05200
C211        C  0.48071305  0.23568789  0.79749231     0.05100
C212        C  0.46560375  0.25346758  0.80746310    -0.15400
H213        H  0.44144032  0.24176385  0.82329279     0.07200
H214        H  0.05213109  0.29538327  0.75097716     0.07200
C215        C  0.26591125  0.00111834  0.78591247     0.05200
C216        C  0.28279047  0.03207835  0.80215570     0.05100
C217        C  0.26513926  0.04879288  0.80533238    -0.15400
C218        C  0.23083909  0.03513832  0.79252336     0.05200
C219        C  0.21393884  0.50409783  0.77644576     0.05100
C220        C  0.23158377  0.48741487  0.77328027    -0.15400
H221        H  0.21850530  0.46358578  0.76075509     0.07200
H222        H  0.27826077  0.07266559  0.81775285     0.07200
Zr223      Zr  0.00787625  0.02195624  0.60674098     2.17500
O224        O  0.04822310  0.03822319  0.65679119    -0.48500
O225        O  0.45792863  0.99700424  0.64868241    -0.71700
O226        O  0.02145232  0.07295843  0.63382812    -0.78400
O227        O  0.01981537  0.45013154  0.59025715    -0.80200
O228        O  0.01389686  0.10378378  0.59328103    -0.75800
O229        O  0.02480824  0.48641598  0.63221363    -0.87400
O230        O  0.40765733  0.47266883  0.61644646    -0.73400
O231        O  0.46545869  0.03074476  0.58072197    -0.82900
O232        O  0.46591977  0.47122618  0.58020304    -0.82600
O233        O  0.04081606  0.06596811  0.56450254    -0.69300
O234        O  0.04015061  0.01100907  0.56341872    -0.81500
Zr235      Zr  0.48653548  0.01252895  0.96707680     2.26400
Zr236      Zr  0.49751262  0.07372631  0.53743082     2.06300
Zr237      Zr  0.49758634  0.46059439  0.53602090     2.10000
Zr238      Zr  0.42387741  0.48020233  0.55369109     1.78800
O239        O  0.04218623  0.44913623  0.51778126    -0.90300
O240        O  0.38414408  0.99980711  0.56063525    -0.38100
O241        O  0.45455507  0.46866612  0.50939875    -0.74700
O242        O  0.45412195  0.02327169  0.51042216    -0.93400
O243        O  0.02895472  0.06300356  0.49345847    -0.86700
O244        O  0.02893081  0.00350931  0.99293311    -0.89600
C245        C  0.42425341  0.48061929  0.64596521     1.04200
C246        C  0.02756967  0.46272148  0.62156783     1.17100
C247        C  0.02193826  0.09866157  0.62434404     1.07900
O248        O  0.45575181  0.08997239  0.55063095    -0.91700
O249        O  0.47872953  0.08638282  0.98218307    -0.87500
O250        O  0.47747815  0.05255726  0.93907322    -0.80600
C251        C  0.47384828  0.07567995  0.95002853     1.14500
O252        O  0.11926525  0.07810977  0.56222089    -0.93700
Zr253      Zr  0.07089369  0.05391747  0.51997646     1.88900
O254        O  0.03590795  0.03706534  0.92462367    -0.70300
O255        O  0.04522551  0.12881261  0.52112599    -0.49600
O256        O  0.10666250  0.11301476  0.51122865    -0.94300
O257        O  0.11101418  0.03477905  0.51223389    -0.51500
O258        O  0.08625907  0.06227183  0.95691009    -0.70900
C259        C  0.06958907  0.05402265  0.92738958     1.01500
O260        O  0.43829118  0.48990255  0.92426183    -0.59700
O261        O  0.45488871  0.40361962  0.55171953    -0.54500
O262        O  0.47496397  0.46317663  0.93819296    -0.91200
O263        O  0.47528406  0.42959518  0.98078257    -0.89600
O264        O  0.38780429  0.42105212  0.56152839    -0.89900
O265        O  0.37477278  0.45503369  0.51249589    -0.88700
C266        C  0.47007888  0.43588422  0.94888157     1.20300
H267        H  0.45506229  0.45384434  0.59782793     0.36300
H268        H  0.43656154  0.02567887  0.49868182     0.47100
H269        H  0.03979499  0.49720628  0.97500315     0.40700
H270        H  0.05841084  0.08558353  0.57643207     0.37100
H271        H  0.36294050  0.48165629  0.57278391     0.28900
H272        H  0.03530877  0.14260046  0.52515268     0.34900
H273        H  0.12705024  0.11703637  0.99662538     0.40800
H274        H  0.36707042  0.41702141  0.57569668     0.35200
H275        H  0.46774386  0.39235445  0.54819545     0.34100
H276        H  0.02980359  0.42498105  0.51808193     0.35800
H277        H  0.12930437  0.05048549  0.99506810     0.34800
H278        H  0.38568633  0.45612998  0.48898508     0.38800
H279        H  0.42294277  0.46633614  0.93018046     0.31500
H280        H  0.03624026  0.04135791  0.67732368     0.35700
H281        H  0.14109689  0.09074572  0.54762249     0.38600
H282        H  0.45148689  0.40335103  0.57792404     0.31200
H283        H  0.42354275  0.49868663  0.93110819     0.44100
H284        H  0.44405657  0.07850385  0.57328319     0.34100
H285        H  0.39524861  0.01710310  0.57891121     0.43200
H286        H  0.09763794  0.01420683  0.99867878     0.33600
H287        H  0.06289564  0.13526246  0.54011841     0.33600
H288        H  0.06848476  0.06035443  0.65068135     0.33900
C289        C  0.44829906  0.09669524  0.90156911    -0.10400
C290        C  0.46146385  0.08911604  0.92434249    -0.12000
C291        C  0.34829258  0.06445384  0.82527145    -0.10400
C292        C  0.31843393  0.04789768  0.81492222    -0.12000
C293        C  0.46390544  0.20212427  0.80893688    -0.10400
C294        C  0.44978338  0.17436261  0.81953591    -0.12000
C295        C  0.05362118  0.44226122  0.67022136    -0.10400
C296        C  0.04117626  0.45010789  0.64692222    -0.12000
C297        C  0.14886121  0.47175354  0.75222599    -0.10400
C298        C  0.17842259  0.48826732  0.76335106    -0.12000
C299        C  0.04499544  0.36297333  0.75494905    -0.10400
C300        C  0.02997549  0.33513746  0.76552798    -0.12000
C301        C  0.03393988  0.12401647  0.65037805    -0.10400
C302        C  0.04642937  0.14460730  0.67318588    -0.12000
C303        C  0.02797528  0.23324502  0.76554286    -0.10400
C304        C  0.04202605  0.21947191  0.75484144    -0.12000
C305        C  0.17543724  0.22676791  0.76025888    -0.10400
C306        C  0.14560651  0.21338324  0.74964819    -0.12000
C307        C  0.09078980  0.06472733  0.89523371    -0.10400
C308        C  0.11192436  0.07527374  0.87080586    -0.12000
C309        C  0.21142497  0.19757708  0.79437410    -0.10400
C310        C  0.19823836  0.16870406  0.80055983    -0.12000
C311        C  0.21358811  0.05321833  0.79680871    -0.10400
C312        C  0.19987720  0.06867137  0.80227139    -0.12000
C313        C  0.40298070  0.46996598  0.67812859    -0.10400
C314        C  0.38172124  0.45928016  0.70247976    -0.12000
C315        C  0.28325385  0.48323104  0.78081061    -0.10400
C316        C  0.29642336  0.46751683  0.77415126    -0.12000
C317        C  0.29355181  0.36539447  0.77121214    -0.10400
C318        C  0.27979911  0.33642275  0.77718141    -0.12000
C319        C  0.44338160  0.39001236  0.89990801    -0.10400
C320        C  0.45644931  0.41026339  0.92302285    -0.12000
C321        C  0.34557369  0.32116345  0.82175542    -0.10400
C322        C  0.31569603  0.30733174  0.81119992    -0.12000
C323        C  0.45046330  0.31715176  0.81775757    -0.10400
C324        C  0.46506788  0.30366844  0.80781721    -0.12000
C325        C  0.42803095  0.86650722  0.37184817     0.83100
N326        N  0.39520419  0.85627110  0.35992734    -0.75200
C327        C  0.38091314  0.83371200  0.33352344     0.85500
N328        N  0.39928701  0.82130016  0.31942225    -0.75200
C329        C  0.43199248  0.83159866  0.33131637     0.85600
N330        N  0.44631136  0.85408574  0.35758962    -0.76900
C331        C  0.35339371  0.94520494  0.22857416     0.83100
N332        N  0.33981615  0.96279928  0.24053583    -0.75200
C333        C  0.31159738  0.94897532  0.26324190     0.85500
N334        N  0.29657640  0.91719938  0.27363188    -0.75200
C335        C  0.31011763  0.89948881  0.26167130     0.85600
N336        N  0.33835940  0.91350531  0.23897348    -0.76900
C337        C  0.14019248  0.58933403  0.34476070     0.83100
N338        N  0.15498064  0.57241125  0.33412106    -0.75200
C339        C  0.18338992  0.58646791  0.31166891     0.85500
N340        N  0.19737370  0.61783966  0.30020977    -0.75200
C341        C  0.18258671  0.63486738  0.31085920     0.85600
N342        N  0.15418853  0.62060997  0.33332775    -0.76900
C343        C  0.28006923  0.78743271  0.29843064     0.05200
C344        C  0.26276731  0.80133537  0.28221816     0.05100
C345        C  0.22839706  0.78072464  0.26973480    -0.15400
C346        C  0.21108468  0.74656986  0.27314105     0.05200
C347        C  0.22838431  0.73265729  0.28937818     0.05100
C348        C  0.26276191  0.75328399  0.30186425    -0.15400
H349        H  0.27616683  0.74268455  0.31437433     0.07200
H350        H  0.21501108  0.79134325  0.25722614     0.07200
C351        C  0.06245349  0.66865891  0.20074374     0.83100
N352        N  0.09531682  0.67857418  0.21224058    -0.75200
C353        C  0.11036731  0.70150397  0.23817389     0.85500
N354        N  0.09268633  0.71459712  0.25228996    -0.75200
C355        C  0.05993050  0.70464558  0.24084251     0.85600
N356        N  0.04482824  0.68176140  0.21499995    -0.76900
C357        C  0.06832899  0.93405672  0.19909484     0.83100
N358        N  0.10051458  0.95669475  0.21198518    -0.75200
C359        C  0.11417039  0.94872532  0.23945331     0.85500
N360        N  0.09579244  0.91814171  0.25374586    -0.75200
C361        C  0.06364623  0.89564205  0.24092140     0.85600
N362        N  0.04994919  0.90356148  0.21355603    -0.76900
C363        C  0.43160502  0.60407169  0.37394027     0.83100
N364        N  0.44837633  0.63456305  0.35951013    -0.75200
C365        C  0.43271225  0.64181152  0.33357142     0.85500
N366        N  0.40021251  0.61866400  0.32216626    -0.75200
C367        C  0.38337873  0.58810507  0.33647461     0.85600
N368        N  0.39899653  0.58077522  0.36252808    -0.76900
C369        C  0.48144240  0.78624553  0.29713112     0.05200
C370        C  0.01288281  0.80151636  0.27682488     0.05100
C371        C  0.02797329  0.78373392  0.26681596    -0.15400
C372        C  0.01201121  0.75089751  0.27692431     0.05200
C373        C  0.48070362  0.73568736  0.29743518     0.05100
C374        C  0.46557419  0.75344699  0.30741804    -0.15400
H375        H  0.44140615  0.74172430  0.32324103     0.07200
H376        H  0.05212586  0.79544015  0.25096983     0.07200
C377        C  0.26587965  0.50110648  0.28592309     0.05200
C378        C  0.28277460  0.53208207  0.30213237     0.05100
C379        C  0.26514145  0.54881471  0.30527916    -0.15400
C380        C  0.23084188  0.53516216  0.29247436     0.05200
C381        C  0.21392497  0.00410851  0.27643001     0.05100
C382        C  0.23155130  0.98740621  0.27329425    -0.15400
H383        H  0.21845842  0.96356586  0.26079415     0.07200
H384        H  0.27827498  0.57269788  0.31767660     0.07200
Zr385      Zr  0.00785682  0.52193678  0.10676685     2.17500
O386        O  0.04820835  0.53818859  0.15681498    -0.48500
O387        O  0.45788098  0.49695332  0.14869087    -0.71700
O388        O  0.02145305  0.57294307  0.13387783    -0.78400
O389        O  0.01980316  0.95011144  0.09023065    -0.80200
O390        O  0.01396319  0.60379476  0.09330982    -0.75800
O391        O  0.02478780  0.98638260  0.13220290    -0.87400
O392        O  0.40761737  0.97267020  0.11644108    -0.73400
O393        O  0.46544719  0.53073485  0.08074216    -0.82900
O394        O  0.46591064  0.97121272  0.08020683    -0.82600
O395        O  0.04082164  0.56595046  0.06452983    -0.69300
O396        O  0.04011557  0.51098728  0.06341982    -0.81500
Zr397      Zr  0.48654589  0.51254010  0.46706945     2.26400
Zr398      Zr  0.49752989  0.57372499  0.03746202     2.06300
Zr399      Zr  0.49756295  0.96057380  0.03600867     2.10000
Zr400      Zr  0.42387177  0.98019101  0.05369569     1.78800
O401        O  0.04215423  0.94910929  0.01775575    -0.90300
O402        O  0.38411083  0.49977683  0.06050499    -0.38100
O403        O  0.45452994  0.96864390  0.00939204    -0.74700
O404        O  0.45413383  0.52327299  0.01044602    -0.93400
O405        O  0.02895108  0.56299123  0.99346966    -0.86700
O406        O  0.02894105  0.50352578  0.49293509    -0.89600
C407        C  0.42420464  0.98059101  0.14596491     1.04200
C408        C  0.02755853  0.96269659  0.12154264     1.17100
C409        C  0.02197827  0.59866359  0.12438237     1.07900
O410        O  0.45578473  0.58998425  0.05068167    -0.91700
O411        O  0.47868988  0.58635623  0.48214706    -0.87500
O412        O  0.47749412  0.55256153  0.43903012    -0.80600
C413        C  0.47383089  0.57566486  0.44998832     1.14500
O414        O  0.11924684  0.57798064  0.06223494    -0.93700
Zr415      Zr  0.07088320  0.55389736  0.01998267     1.88900
O416        O  0.03592353  0.53709132  0.42461957    -0.70300
O417        O  0.04519984  0.62883061  0.02115338    -0.49600
O418        O  0.10661757  0.61300819  0.01134468    -0.94300
O419        O  0.11104925  0.53481633  0.01218545    -0.51500
O420        O  0.08627139  0.56225183  0.45691301    -0.70900
C421        C  0.06960506  0.55402478  0.42739211     1.01500
O422        O  0.43825973  0.98985361  0.42430687    -0.59700
O423        O  0.45488209  0.90359194  0.05169376    -0.54500
O424        O  0.47498196  0.96318224  0.43820697    -0.91200
O425        O  0.47528594  0.92960349  0.48081338    -0.89600
O426        O  0.38784006  0.92104577  0.06160670    -0.89900
O427        O  0.37480010  0.95496368  0.01246434    -0.88700
C428        C  0.47008332  0.93588794  0.44891056     1.20300
H429        H  0.45505043  0.95382862  0.09782886     0.36300
H430        H  0.43657752  0.52568938  0.99871062     0.47100
H431        H  0.03980450  0.99722120  0.47500613     0.40700
H432        H  0.05842164  0.58556161  0.07646186     0.37100
H433        H  0.36293435  0.98166335  0.07272782     0.28900
H434        H  0.03526782  0.64260213  0.02521210     0.34900
H435        H  0.12714438  0.61701725  0.49661568     0.40800
H436        H  0.36695193  0.91699210  0.07549641     0.35200
H437        H  0.46777589  0.89235275  0.04826175     0.34100
H438        H  0.02979341  0.92495603  0.01815214     0.35800
H439        H  0.12931262  0.55046202  0.49515908     0.34800
H440        H  0.38582040  0.95665528  0.98884637     0.38800
H441        H  0.42290673  0.96630128  0.43029003     0.31500
H442        H  0.03625219  0.54136196  0.17734425     0.35700
H443        H  0.14106981  0.59076289  0.04765627     0.38600
H444        H  0.45140506  0.90333164  0.07788476     0.31200
H445        H  0.42353423  0.99866721  0.43113164     0.44100
H446        H  0.44408703  0.57850982  0.07333042     0.34100
H447        H  0.39523579  0.51714517  0.07870082     0.43200
H448        H  0.09761107  0.51419341  0.49868578     0.33600
H449        H  0.06288977  0.63528785  0.04012620     0.33600
H450        H  0.06849196  0.56030270  0.15068571     0.33900
C451        C  0.44826317  0.59668181  0.40154722    -0.10400
C452        C  0.46143275  0.58909255  0.42430555    -0.12000
C453        C  0.34827369  0.56446093  0.32524266    -0.10400
C454        C  0.31841633  0.54790009  0.31489557    -0.12000
C455        C  0.46391349  0.70211921  0.30887031    -0.10400
C456        C  0.44979259  0.67435807  0.31947789    -0.12000
C457        C  0.05363544  0.94225149  0.17017849    -0.10400
C458        C  0.04118232  0.95008924  0.14688089    -0.12000
C459        C  0.14884159  0.97178099  0.25223266    -0.10400
C460        C  0.17840802  0.98828562  0.26334403    -0.12000
C461        C  0.04495599  0.86301233  0.25501191    -0.10400
C462        C  0.02994103  0.83516828  0.26556945    -0.12000
C463        C  0.03398831  0.62402656  0.15041193    -0.10400
C464        C  0.04647237  0.64462928  0.17320933    -0.12000
C465        C  0.02800411  0.73330117  0.26549424    -0.10400
C466        C  0.04207114  0.71954092  0.25479946    -0.12000
C467        C  0.17545836  0.72678278  0.26028616    -0.10400
C468        C  0.14562329  0.71340120  0.24969212    -0.12000
C469        C  0.09081606  0.56473407  0.39524639    -0.10400
C470        C  0.11196989  0.57529471  0.37083734    -0.12000
C471        C  0.21144596  0.69758133  0.29435008    -0.10400
C472        C  0.19824793  0.66871296  0.30055347    -0.12000
C473        C  0.21359794  0.55324740  0.29675006    -0.10400
C474        C  0.19988365  0.56869415  0.30222485    -0.12000
C475        C  0.40291845  0.96992960  0.17812195    -0.10400
C476        C  0.38165016  0.95924173  0.20246672    -0.12000
C477        C  0.28321085  0.98320530  0.28084156    -0.10400
C478        C  0.29637702  0.96748650  0.27418702    -0.12000
C479        C  0.29355524  0.86538753  0.27128392    -0.10400
C480        C  0.27981592  0.83641884  0.27725029    -0.12000
C481        C  0.44336067  0.88998591  0.39997777    -0.10400
C482        C  0.45643895  0.91025559  0.42307028    -0.12000
C483        C  0.34557666  0.82115883  0.32180421    -0.10400
C484        C  0.31570742  0.80731826  0.31123193    -0.12000
C485        C  0.45043752  0.81712474  0.31782383    -0.10400
C486        C  0.46503075  0.80364238  0.30784879    -0.12000
C487        C  0.42805553  0.86654388  0.87176407     0.83100
N488        N  0.39521887  0.85629155  0.85985872    -0.75200
C489        C  0.38091996  0.83372284  0.83346328     0.85500
N490        N  0.39929729  0.82131383  0.81935830    -0.75200
C491        C  0.43201452  0.83162984  0.83123594     0.85600
N492        N  0.44633876  0.85412832  0.85749792    -0.76900
C493        C  0.35345944  0.94524039  0.72857901     0.83100
N494        N  0.33988230  0.96283601  0.74053552    -0.75200
C495        C  0.31164206  0.94900415  0.76321266     0.85500
N496        N  0.29659753  0.91721893  0.77357677    -0.75200
C497        C  0.31013805  0.89950597  0.76162223     0.85600
N498        N  0.33840370  0.91353160  0.73895430    -0.76900
C499        C  0.14014223  0.58930378  0.84472130     0.83100
N500        N  0.15494499  0.57238619  0.83410991    -0.75200
C501        C  0.18337612  0.58644792  0.81168607     0.85500
N502        N  0.19737027  0.61782420  0.80022969    -0.75200
C503        C  0.18256693  0.63484777  0.81084878     0.85600
N504        N  0.15414461  0.62058043  0.83328637    -0.76900
C505        C  0.28004512  0.78744377  0.79842008     0.05200
C506        C  0.26274562  0.80133867  0.78217961     0.05100
C507        C  0.22837257  0.78071772  0.76970188    -0.15400
C508        C  0.21105707  0.74656235  0.77313411     0.05200
C509        C  0.22835236  0.73265723  0.78940235     0.05100
C510        C  0.26272899  0.75329526  0.80189011    -0.15400
H511        H  0.27613335  0.74270340  0.81441800     0.07200
H512        H  0.21498908  0.79132851  0.75716978     0.07200
C513        C  0.06241466  0.66862497  0.70072944     0.83100
N514        N  0.09529177  0.67855643  0.71219777    -0.75200
C515        C  0.11034593  0.70148111  0.73813660     0.85500
N516        N  0.09265577  0.71455373  0.75228217    -0.75200
C517        C  0.05988671  0.70458503  0.74086389     0.85600
N518        N  0.04477977  0.68170475  0.71501880    -0.76900
C519        C  0.06832696  0.93405114  0.69911479     0.83100
N520        N  0.10051584  0.95668411  0.71200464    -0.75200
C521        C  0.11419419  0.94869442  0.73943387     0.85500
N522        N  0.09583375  0.91809648  0.75368949    -0.75200
C523        C  0.06368383  0.89560348  0.74086815     0.85600
N524        N  0.04996425  0.90354182  0.71354156    -0.76900
C525        C  0.43163819  0.60407305  0.87395445     0.83100
N526        N  0.44839518  0.63456754  0.85953658    -0.75200
C527        C  0.43271816  0.64181471  0.83361243     0.85500
N528        N  0.40022001  0.61866408  0.82220816    -0.75200
C529        C  0.38340010  0.58810037  0.83650149     0.85600
N530        N  0.39903068  0.58077094  0.86254263    -0.76900
C531        C  0.48147849  0.78625781  0.79714157     0.05200
C532        C  0.01291136  0.80149903  0.77682316     0.05100
C533        C  0.02798587  0.78369837  0.76683456    -0.15400
C534        C  0.01201123  0.75086834  0.77696889     0.05200
C535        C  0.48071312  0.73568792  0.79749235     0.05100
C536        C  0.46560380  0.75346759  0.80746310    -0.15400
H537        H  0.44144034  0.74176384  0.82329275     0.07200
H538        H  0.05213113  0.79538330  0.75097714     0.07200
C539        C  0.26591134  0.50111835  0.78591245     0.05200
C540        C  0.28279055  0.53207836  0.80215567     0.05100
C541        C  0.26513929  0.54879285  0.80533242    -0.15400
C542        C  0.23083915  0.53513829  0.79252331     0.05200
C543        C  0.21393875  0.00409780  0.77644586     0.05100
C544        C  0.23158369  0.98741485  0.77328028    -0.15400
H545        H  0.21850523  0.96358583  0.76075506     0.07200
H546        H  0.27826074  0.57266551  0.81775297     0.07200
Zr547      Zr  0.00787626  0.52195623  0.60674099     2.17500
O548        O  0.04822326  0.53822328  0.65679112    -0.48500
O549        O  0.45792862  0.49700421  0.64868244    -0.71700
O550        O  0.02145226  0.57295846  0.63382812    -0.78400
O551        O  0.01981550  0.95013160  0.59025709    -0.80200
O552        O  0.01389679  0.60378380  0.59328102    -0.75800
O553        O  0.02480822  0.98641593  0.63221365    -0.87400
O554        O  0.40765731  0.97266879  0.61644648    -0.73400
O555        O  0.46545869  0.53074476  0.58072199    -0.82900
O556        O  0.46591987  0.97122629  0.58020291    -0.82600
O557        O  0.04081597  0.56596797  0.56450245    -0.69300
O558        O  0.04015066  0.51100904  0.56341873    -0.81500
Zr559      Zr  0.48653551  0.51252898  0.96707679     2.26400
Zr560      Zr  0.49751267  0.57372627  0.53743080     2.06300
Zr561      Zr  0.49758643  0.96059445  0.53602086     2.10000
Zr562      Zr  0.42387743  0.98020236  0.55369108     1.78800
O563        O  0.04218632  0.94913632  0.51778129    -0.90300
O564        O  0.38414396  0.49980701  0.56063526    -0.38100
O565        O  0.45455507  0.96866609  0.50939873    -0.74700
O566        O  0.45412180  0.52327170  0.51042210    -0.93400
O567        O  0.02895470  0.56300356  0.49345846    -0.86700
O568        O  0.02893084  0.50350932  0.99293302    -0.89600
C569        C  0.42425343  0.98061932  0.64596521     1.04200
C570        C  0.02756969  0.96272147  0.62156782     1.17100
C571        C  0.02193819  0.59866161  0.62434404     1.07900
O572        O  0.45575201  0.58997250  0.55063093    -0.91700
O573        O  0.47872961  0.58638279  0.98218303    -0.87500
O574        O  0.47747806  0.55255717  0.93907318    -0.80600
C575        C  0.47384834  0.57567994  0.95002849     1.14500
O576        O  0.11926514  0.57810965  0.56222098    -0.93700
Zr577      Zr  0.07089371  0.55391750  0.51997644     1.88900
O578        O  0.03590796  0.53706543  0.92462367    -0.70300
O579        O  0.04522539  0.62881262  0.52112598    -0.49600
O580        O  0.10666247  0.61301484  0.51122866    -0.94300
O581        O  0.11101426  0.53477915  0.51223386    -0.51500
O582        O  0.08625910  0.56227193  0.95691004    -0.70900
C583        C  0.06958907  0.55402273  0.92738955     1.01500
O584        O  0.43829113  0.98990263  0.92426182    -0.59700
O585        O  0.45488865  0.90361976  0.55171957    -0.54500
O586        O  0.47496409  0.96317665  0.93819298    -0.91200
O587        O  0.47528409  0.92959512  0.98078255    -0.89600
O588        O  0.38780450  0.92105220  0.56152837    -0.89900
O589        O  0.37477275  0.95503379  0.51249592    -0.88700
C590        C  0.47007896  0.93588421  0.94888157     1.20300
H591        H  0.45506252  0.95384455  0.59782775     0.36300
H592        H  0.43656130  0.52567893  0.49868176     0.47100
H593        H  0.03979490  0.99720623  0.97500320     0.40700
H594        H  0.05841065  0.58558326  0.57643197     0.37100
H595        H  0.36294062  0.98165640  0.57278392     0.28900
H596        H  0.03530870  0.64260053  0.52515278     0.34900
H597        H  0.12705052  0.61703643  0.99662555     0.40800
H598        H  0.36707053  0.91702144  0.57569654     0.35200
H599        H  0.46774372  0.89235452  0.54819547     0.34100
H600        H  0.02980372  0.92498115  0.51808187     0.35800
H601        H  0.12930437  0.55048558  0.99506804     0.34800
H602        H  0.38568626  0.95612979  0.48898517     0.38800
H603        H  0.42294273  0.96633621  0.93018042     0.31500
H604        H  0.03624042  0.54135791  0.67732367     0.35700
H605        H  0.14109681  0.59074554  0.54762259     0.38600
H606        H  0.45148685  0.90335115  0.57792415     0.31200
H607        H  0.42354272  0.99868672  0.93110821     0.44100
H608        H  0.44405667  0.57850391  0.57328313     0.34100
H609        H  0.39524846  0.51710300  0.57891121     0.43200
H610        H  0.09763800  0.51420689  0.99867888     0.33600
H611        H  0.06289561  0.63526248  0.54011831     0.33600
H612        H  0.06848488  0.56035459  0.65068135     0.33900
C613        C  0.44829908  0.59669528  0.90156914    -0.10400
C614        C  0.46146397  0.58911612  0.92434247    -0.12000
C615        C  0.34829266  0.56445390  0.82527142    -0.10400
C616        C  0.31843402  0.54789772  0.81492218    -0.12000
C617        C  0.46390552  0.70212431  0.80893690    -0.10400
C618        C  0.44978339  0.67436264  0.81953590    -0.12000
C619        C  0.05362119  0.94226118  0.67022135    -0.10400
C620        C  0.04117621  0.95010782  0.64692223    -0.12000
C621        C  0.14886112  0.97175347  0.75222612    -0.10400
C622        C  0.17842251  0.98826725  0.76335116    -0.12000
C623        C  0.04499548  0.86297327  0.75494900    -0.10400
C624        C  0.02997544  0.83513742  0.76552793    -0.12000
C625        C  0.03393982  0.62401652  0.65037804    -0.10400
C626        C  0.04642939  0.64460737  0.67318584    -0.12000
C627        C  0.02797536  0.73324507  0.76554284    -0.10400
C628        C  0.04202613  0.71947196  0.75484143    -0.12000
C629        C  0.17543721  0.72676789  0.76025890    -0.10400
C630        C  0.14560648  0.71338316  0.74964821    -0.12000
C631        C  0.09078979  0.56472736  0.89523368    -0.10400
C632        C  0.11192431  0.57527363  0.87080578    -0.12000
C633        C  0.21142486  0.69757702  0.79437412    -0.10400
C634        C  0.19823821  0.66870400  0.80055983    -0.12000
C635        C  0.21358813  0.55321830  0.79680876    -0.10400
C636        C  0.19987734  0.56867142  0.80227149    -0.12000
C637        C  0.40298078  0.96996605  0.67812862    -0.10400
C638        C  0.38172130  0.95928020  0.70247975    -0.12000
C639        C  0.28325380  0.98323106  0.78081058    -0.10400
C640        C  0.29642338  0.96751691  0.77415121    -0.12000
C641        C  0.29355177  0.86539446  0.77121214    -0.10400
C642        C  0.27979912  0.83642275  0.77718138    -0.12000
C643        C  0.44338159  0.89001234  0.89990803    -0.10400
C644        C  0.45644937  0.91026341  0.92302282    -0.12000
C645        C  0.34557368  0.82116351  0.82175540    -0.10400
C646        C  0.31569602  0.80733177  0.81119993    -0.12000
C647        C  0.45046325  0.81715167  0.81775761    -0.10400
C648        C  0.46506791  0.80366842  0.80781724    -0.12000
C649        C  0.92803093  0.36650726  0.37184815     0.83100
N650        N  0.89520415  0.35627112  0.35992736    -0.75200
C651        C  0.88091314  0.33371205  0.33352341     0.85500
N652        N  0.89928701  0.32130022  0.31942220    -0.75200
C653        C  0.93199242  0.33159863  0.33131640     0.85600
N654        N  0.94631129  0.35408572  0.35758965    -0.76900
C655        C  0.85339359  0.44520485  0.22857414     0.83100
N656        N  0.83981604  0.46279920  0.24053581    -0.75200
C657        C  0.81159726  0.44897525  0.26324189     0.85500
N658        N  0.79657628  0.41719931  0.27363188    -0.75200
C659        C  0.81011752  0.39948875  0.26167129     0.85600
N660        N  0.83835929  0.41350524  0.23897347    -0.76900
C661        C  0.64019241  0.08933395  0.34476066     0.83100
N662        N  0.65498055  0.07241117  0.33412100    -0.75200
C663        C  0.68338984  0.08646783  0.31166887     0.85500
N664        N  0.69737363  0.11783958  0.30020972    -0.75200
C665        C  0.68258666  0.13486732  0.31085918     0.85600
N666        N  0.65418850  0.12060992  0.33332776    -0.76900
C667        C  0.78006923  0.28743277  0.29843065     0.05200
C668        C  0.76276729  0.30133539  0.28221813     0.05100
C669        C  0.72839704  0.28072461  0.26973480    -0.15400
C670        C  0.71108467  0.24656983  0.27314106     0.05200
C671        C  0.72838430  0.23265729  0.28937822     0.05100
C672        C  0.76276190  0.25328403  0.30186428    -0.15400
H673        H  0.77616685  0.24268464  0.31437437     0.07200
H674        H  0.71501101  0.29134319  0.25722613     0.07200
C675        C  0.56245355  0.16865895  0.20074372     0.83100
N676        N  0.59531688  0.17857423  0.21224056    -0.75200
C677        C  0.61036732  0.20150399  0.23817392     0.85500
N678        N  0.59268628  0.21459707  0.25229002    -0.75200
C679        C  0.55993047  0.20464554  0.24084253     0.85600
N680        N  0.54482828  0.18176142  0.21499991    -0.76900
C681        C  0.56832905  0.43405666  0.19909475     0.83100
N682        N  0.60051465  0.45669465  0.21198507    -0.75200
C683        C  0.61417039  0.44872523  0.23945327     0.85500
N684        N  0.59579240  0.41814164  0.25374587    -0.75200
C685        C  0.56364618  0.39564201  0.24092141     0.85600
N686        N  0.54994916  0.40356144  0.21355603    -0.76900
C687        C  0.93160504  0.10407163  0.37394020     0.83100
N688        N  0.94837633  0.13456304  0.35951015    -0.75200
C689        C  0.93271225  0.14181154  0.33357147     0.85500
N690        N  0.90021249  0.11866405  0.32216632    -0.75200
C691        C  0.88337873  0.08810510  0.33647462     0.85600
N692        N  0.89899656  0.08077519  0.36252798    -0.76900
C693        C  0.98144244  0.28624557  0.29713115     0.05200
C694        C  0.51288279  0.30151634  0.27682484     0.05100
C695        C  0.52797327  0.28373390  0.26681592    -0.15400
C696        C  0.51201122  0.25089751  0.27692432     0.05200
C697        C  0.98070357  0.23568735  0.29743517     0.05100
C698        C  0.96557419  0.25344702  0.30741811    -0.15400
H699        H  0.94140622  0.24172442  0.32324113     0.07200
H700        H  0.55212581  0.29544008  0.25096978     0.07200
C701        C  0.76587962  0.00110643  0.28592309     0.05200
C702        C  0.78277462  0.03208207  0.30213227     0.05100
C703        C  0.76514139  0.04881464  0.30527913    -0.15400
C704        C  0.73084180  0.03516205  0.29247436     0.05200
C705        C  0.71392499  0.50410859  0.27643001     0.05100
C706        C  0.73155129  0.48740626  0.27329422    -0.15400
H707        H  0.71845843  0.46356594  0.26079413     0.07200
H708        H  0.77827487  0.07269779  0.31767660     0.07200
Zr709      Zr  0.50785680  0.02193674  0.10676687     2.17500
O710        O  0.54820828  0.03818873  0.15681518    -0.48500
O711        O  0.95788091  0.99695332  0.14869083    -0.71700
O712        O  0.52145322  0.07294314  0.13387777    -0.78400
O713        O  0.51980307  0.45011138  0.09023066    -0.80200
O714        O  0.51396310  0.10379475  0.09330987    -0.75800
O715        O  0.52478770  0.48638253  0.13220290    -0.87400
O716        O  0.90761743  0.47267030  0.11644113    -0.73400
O717        O  0.96544716  0.03073485  0.08074215    -0.82900
O718        O  0.96591067  0.47121282  0.08020683    -0.82600
O719        O  0.54082158  0.06595041  0.06452985    -0.69300
O720        O  0.54011560  0.01098721  0.06341988    -0.81500
Zr721      Zr  0.98654598  0.01254011  0.46706945     2.26400
Zr722      Zr  0.99752986  0.07372503  0.03746203     2.06300
Zr723      Zr  0.99756296  0.46057384  0.03600869     2.10000
Zr724      Zr  0.92387175  0.48019102  0.05369570     1.78800
O725        O  0.54215414  0.44910921  0.01775575    -0.90300
O726        O  0.88411094  0.99977698  0.06050503    -0.38100
O727        O  0.95452994  0.46864390  0.00939204    -0.74700
O728        O  0.95413398  0.02327295  0.01044613    -0.93400
O729        O  0.52895110  0.06299118  0.99346972    -0.86700
O730        O  0.52894112  0.00352574  0.49293499    -0.89600
C731        C  0.92420470  0.48059106  0.14596498     1.04200
C732        C  0.52755848  0.46269654  0.12154264     1.17100
C733        C  0.52197833  0.09866361  0.12438238     1.07900
O734        O  0.95578457  0.08998415  0.05068170    -0.91700
O735        O  0.97868991  0.08635627  0.48214703    -0.87500
O736        O  0.97749421  0.05256154  0.43903015    -0.80600
C737        C  0.97383092  0.07566485  0.44998831     1.14500
O738        O  0.61924684  0.07798062  0.06223505    -0.93700
Zr739      Zr  0.57088324  0.05389734  0.01998275     1.88900
O740        O  0.53592356  0.03709150  0.42461958    -0.70300
O741        O  0.54519980  0.12883061  0.02115336    -0.49600
O742        O  0.60661747  0.11300816  0.01134470    -0.94300
O743        O  0.61104930  0.03481627  0.01218546    -0.51500
O744        O  0.58627143  0.06225175  0.45691300    -0.70900
C745        C  0.56960509  0.05402483  0.42739211     1.01500
O746        O  0.93825972  0.48985373  0.42430685    -0.59700
O747        O  0.95488206  0.40359197  0.05169376    -0.54500
O748        O  0.97498191  0.46318224  0.43820692    -0.91200
O749        O  0.97528591  0.42960354  0.48081338    -0.89600
O750        O  0.88784020  0.42104578  0.06160670    -0.89900
O751        O  0.87480012  0.45496382  0.01246431    -0.88700
C752        C  0.97008331  0.43588798  0.44891054     1.20300
H753        H  0.95505043  0.45382873  0.09782887     0.36300
H754        H  0.93657775  0.02568926  0.99871075     0.47100
H755        H  0.53980440  0.49722130  0.47500625     0.40700
H756        H  0.55842155  0.08556154  0.07646192     0.37100
H757        H  0.86293424  0.48166324  0.07272793     0.28900
H758        H  0.53526774  0.14260209  0.02521211     0.34900
H759        H  0.62714445  0.11701711  0.49661566     0.40800
H760        H  0.86695204  0.41699202  0.07549643     0.35200
H761        H  0.96777586  0.39235279  0.04826182     0.34100
H762        H  0.52979318  0.42495593  0.01815191     0.35800
H763        H  0.62931258  0.05046186  0.49515905     0.34800
H764        H  0.88582049  0.45665591  0.98884627     0.38800
H765        H  0.92290669  0.46630140  0.43028997     0.31500
H766        H  0.53625215  0.04136212  0.17734441     0.35700
H767        H  0.64106977  0.09076285  0.04765630     0.38600
H768        H  0.95140494  0.40333163  0.07788477     0.31200
H769        H  0.92353424  0.49866735  0.43113168     0.44100
H770        H  0.94408706  0.07850986  0.07333054     0.34100
H771        H  0.89523592  0.01714533  0.07870085     0.43200
H772        H  0.59761106  0.01419325  0.49868585     0.33600
H773        H  0.56288970  0.13528782  0.04012621     0.33600
H774        H  0.56849191  0.06030279  0.15068594     0.33900
C775        C  0.94826312  0.09668173  0.40154722    -0.10400
C776        C  0.96143268  0.08909244  0.42430554    -0.12000
C777        C  0.84827373  0.06446098  0.32524262    -0.10400
C778        C  0.81841638  0.04790013  0.31489547    -0.12000
C779        C  0.96391343  0.20211921  0.30887030    -0.10400
C780        C  0.94979255  0.17435808  0.31947794    -0.12000
C781        C  0.55363549  0.44225150  0.17017845    -0.10400
C782        C  0.54118239  0.45008930  0.14688087    -0.12000
C783        C  0.64884157  0.47178092  0.25223271    -0.10400
C784        C  0.67840800  0.48828563  0.26334409    -0.12000
C785        C  0.54495597  0.36301228  0.25501187    -0.10400
C786        C  0.52994100  0.33516824  0.26556940    -0.12000
C787        C  0.53398840  0.12402661  0.15041193    -0.10400
C788        C  0.54647245  0.14462933  0.17320930    -0.12000
C789        C  0.52800412  0.23330118  0.26549423    -0.10400
C790        C  0.54207111  0.21954088  0.25479946    -0.12000
C791        C  0.67545837  0.22678276  0.26028614    -0.10400
C792        C  0.64562331  0.21340126  0.24969212    -0.12000
C793        C  0.59081606  0.06473406  0.39524638    -0.10400
C794        C  0.61196989  0.07529466  0.37083734    -0.12000
C795        C  0.71144591  0.19758129  0.29435010    -0.10400
C796        C  0.69824787  0.16871291  0.30055345    -0.12000
C797        C  0.71359783  0.05324728  0.29675006    -0.10400
C798        C  0.69988354  0.06869404  0.30222484    -0.12000
C799        C  0.90291846  0.46992955  0.17812201    -0.10400
C800        C  0.88165009  0.45924164  0.20246672    -0.12000
C801        C  0.78321076  0.48320526  0.28084157    -0.10400
C802        C  0.79637689  0.46748641  0.27418702    -0.12000
C803        C  0.79355516  0.36538752  0.27128392    -0.10400
C804        C  0.77981587  0.33641884  0.27725029    -0.12000
C805        C  0.94336069  0.38998597  0.39997774    -0.10400
C806        C  0.95643900  0.41025561  0.42307028    -0.12000
C807        C  0.84557665  0.32115883  0.32180421    -0.10400
C808        C  0.81570742  0.30731833  0.31123193    -0.12000
C809        C  0.95043747  0.31712471  0.31782384    -0.10400
C810        C  0.96503083  0.30364247  0.30784881    -0.12000
C811        C  0.92805556  0.36654386  0.87176411     0.83100
N812        N  0.89521888  0.35629151  0.85985878    -0.75200
C813        C  0.88091997  0.33372282  0.83346332     0.85500
N814        N  0.89929736  0.32131390  0.81935825    -0.75200
C815        C  0.93201458  0.33162991  0.83123589     0.85600
N816        N  0.94633879  0.35412830  0.85749794    -0.76900
C817        C  0.85345941  0.44524037  0.72857905     0.83100
N818        N  0.83988232  0.46283601  0.74053563    -0.75200
C819        C  0.81164204  0.44900410  0.76321270     0.85500
N820        N  0.79659746  0.41721887  0.77357673    -0.75200
C821        C  0.81013801  0.39950594  0.76162225     0.85600
N822        N  0.83840368  0.41353158  0.73895434    -0.76900
C823        C  0.64014219  0.08930381  0.84472131     0.83100
N824        N  0.65494490  0.07238617  0.83410990    -0.75200
C825        C  0.68337601  0.08644788  0.81168600     0.85500
N826        N  0.69737023  0.11782418  0.80022968    -0.75200
C827        C  0.68256694  0.13484780  0.81084882     0.85600
N828        N  0.65414461  0.12058047  0.83328637    -0.76900
C829        C  0.78004515  0.28744378  0.79842008     0.05200
C830        C  0.76274566  0.30133870  0.78217959     0.05100
C831        C  0.72837263  0.28071776  0.76970190    -0.15400
C832        C  0.71105714  0.24656239  0.77313407     0.05200
C833        C  0.72835242  0.23265726  0.78940233     0.05100
C834        C  0.76272902  0.25329527  0.80189015    -0.15400
H835        H  0.77613337  0.24270344  0.81441807     0.07200
H836        H  0.71498912  0.29132858  0.75716985     0.07200
C837        C  0.56241462  0.16862491  0.70072948     0.83100
N838        N  0.59529176  0.17855643  0.71219780    -0.75200
C839        C  0.61034594  0.20148115  0.73813658     0.85500
N840        N  0.59265574  0.21455374  0.75228216    -0.75200
C841        C  0.55988668  0.20458502  0.74086386     0.85600
N842        N  0.54477973  0.18170471  0.71501881    -0.76900
C843        C  0.56832695  0.43405118  0.69911480     0.83100
N844        N  0.60051587  0.45668414  0.71200457    -0.75200
C845        C  0.61419429  0.44869446  0.73943375     0.85500
N846        N  0.59583383  0.41809652  0.75368943    -0.75200
C847        C  0.56368388  0.39560354  0.74086816     0.85600
N848        N  0.54996426  0.40354187  0.71354159    -0.76900
C849        C  0.93163816  0.10407300  0.87395444     0.83100
N850        N  0.94839517  0.13456750  0.85953657    -0.75200
C851        C  0.93271815  0.14181466  0.83361241     0.85500
N852        N  0.90022000  0.11866401  0.82220815    -0.75200
C853        C  0.88340008  0.08810030  0.83650146     0.85600
N854        N  0.89903067  0.08077089  0.86254262    -0.76900
C855        C  0.98147844  0.28625780  0.79714154     0.05200
C856        C  0.51291135  0.30149905  0.77682319     0.05100
C857        C  0.52798583  0.28369835  0.76683459    -0.15400
C858        C  0.51201114  0.25086830  0.77696886     0.05200
C859        C  0.98071304  0.23568789  0.79749232     0.05100
C860        C  0.96560373  0.25346757  0.80746306    -0.15400
H861        H  0.94144027  0.24176382  0.82329271     0.07200
H862        H  0.55213110  0.29538326  0.75097716     0.07200
C863        C  0.76591130  0.00111834  0.78591247     0.05200
C864        C  0.78279052  0.03207835  0.80215569     0.05100
C865        C  0.76513931  0.04879288  0.80533238    -0.15400
C866        C  0.73083914  0.03513833  0.79252336     0.05200
C867        C  0.71393877  0.50409779  0.77644587     0.05100
C868        C  0.73158375  0.48741486  0.77328032    -0.15400
H869        H  0.71850530  0.46358578  0.76075510     0.07200
H870        H  0.77826084  0.07266559  0.81775285     0.07200
Zr871      Zr  0.50787625  0.02195624  0.60674098     2.17500
O872        O  0.54822316  0.03822319  0.65679113    -0.48500
O873        O  0.95792865  0.99700430  0.64868240    -0.71700
O874        O  0.52145234  0.07295847  0.63382809    -0.78400
O875        O  0.51981543  0.45013157  0.59025712    -0.80200
O876        O  0.51389669  0.10378375  0.59328105    -0.75800
O877        O  0.52480814  0.48641592  0.63221365    -0.87400
O878        O  0.90765738  0.47266882  0.61644648    -0.73400
O879        O  0.96545868  0.03074478  0.58072199    -0.82900
O880        O  0.96591978  0.47122618  0.58020302    -0.82600
O881        O  0.54081606  0.06596812  0.56450253    -0.69300
O882        O  0.54015064  0.01100908  0.56341875    -0.81500
Zr883      Zr  0.98653551  0.01252896  0.96707679     2.26400
Zr884      Zr  0.99751267  0.07372631  0.53743081     2.06300
Zr885      Zr  0.99758638  0.46059441  0.53602089     2.10000
Zr886      Zr  0.92387740  0.48020233  0.55369108     1.78800
O887        O  0.54218623  0.44913623  0.51778128    -0.90300
O888        O  0.88414379  0.99980683  0.56063525    -0.38100
O889        O  0.95455511  0.46866614  0.50939877    -0.74700
O890        O  0.95412201  0.02327169  0.51042217    -0.93400
O891        O  0.52895469  0.06300355  0.49345849    -0.86700
O892        O  0.52893084  0.00350932  0.99293308    -0.89600
C893        C  0.92425346  0.48061928  0.64596523     1.04200
C894        C  0.52756965  0.46272147  0.62156783     1.17100
C895        C  0.52193817  0.09866156  0.62434405     1.07900
O896        O  0.95575188  0.08997240  0.55063095    -0.91700
O897        O  0.97872957  0.08638283  0.98218303    -0.87500
O898        O  0.97747821  0.05255728  0.93907321    -0.80600
C899        C  0.97384834  0.07567996  0.95002851     1.14500
O900        O  0.61926531  0.07810977  0.56222088    -0.93700
Zr901      Zr  0.57089372  0.05391748  0.51997645     1.88900
O902        O  0.53590791  0.03706539  0.92462370    -0.70300
O903        O  0.54522535  0.12881262  0.52112595    -0.49600
O904        O  0.60666257  0.11301477  0.51122865    -0.94300
O905        O  0.61101424  0.03477905  0.51223389    -0.51500
O906        O  0.58625908  0.06227179  0.95691005    -0.70900
C907        C  0.56958903  0.05402265  0.92738957     1.01500
O908        O  0.93829103  0.48990258  0.92426184    -0.59700
O909        O  0.95488877  0.40361963  0.55171959    -0.54500
O910        O  0.97496402  0.46317662  0.93819296    -0.91200
O911        O  0.97528412  0.42959518  0.98078257    -0.89600
O912        O  0.88780439  0.42105213  0.56152837    -0.89900
O913        O  0.87477279  0.45503367  0.51249588    -0.88700
C914        C  0.97007895  0.43588422  0.94888157     1.20300
H915        H  0.95506234  0.45384435  0.59782792     0.36300
H916        H  0.93656160  0.02567887  0.49868182     0.47100
H917        H  0.53979482  0.49720629  0.97500330     0.40700
H918        H  0.55841084  0.08558353  0.57643208     0.37100
H919        H  0.86294052  0.48165630  0.57278390     0.28900
H920        H  0.53530862  0.14260049  0.52515279     0.34900
H921        H  0.62705031  0.11703637  0.99662538     0.40800
H922        H  0.86707043  0.41702136  0.57569655     0.35200
H923        H  0.96774389  0.39235449  0.54819549     0.34100
H924        H  0.52980360  0.42498105  0.51808187     0.35800
H925        H  0.62930443  0.05048551  0.99506804     0.34800
H926        H  0.88568634  0.45612951  0.48898520     0.38800
H927        H  0.92294265  0.46633618  0.93018042     0.31500
H928        H  0.53624035  0.04135792  0.67732365     0.35700
H929        H  0.64109696  0.09074572  0.54762249     0.38600
H930        H  0.95148694  0.40335102  0.57792411     0.31200
H931        H  0.92354260  0.49868664  0.93110821     0.44100
H932        H  0.94405664  0.07850385  0.57328319     0.34100
H933        H  0.89524837  0.01710297  0.57891098     0.43200
H934        H  0.59763802  0.01420685  0.99867882     0.33600
H935        H  0.56289553  0.13526245  0.54011831     0.33600
H936        H  0.56848483  0.06035446  0.65068129     0.33900
C937        C  0.94829902  0.09669523  0.90156915    -0.10400
C938        C  0.96146387  0.08911603  0.92434248    -0.12000
C939        C  0.84829261  0.06445383  0.82527144    -0.10400
C940        C  0.81843398  0.04789767  0.81492222    -0.12000
C941        C  0.96390544  0.20212428  0.80893690    -0.10400
C942        C  0.94978333  0.17436261  0.81953593    -0.12000
C943        C  0.55362116  0.44226122  0.67022137    -0.10400
C944        C  0.54117622  0.45010789  0.64692226    -0.12000
C945        C  0.64886120  0.47175357  0.75222601    -0.10400
C946        C  0.67842256  0.48826731  0.76335110    -0.12000
C947        C  0.54499547  0.36297333  0.75494905    -0.10400
C948        C  0.52997544  0.33513746  0.76552796    -0.12000
C949        C  0.53393978  0.12401647  0.65037806    -0.10400
C950        C  0.54642937  0.14460729  0.67318588    -0.12000
C951        C  0.52797526  0.23324500  0.76554283    -0.10400
C952        C  0.54202606  0.21947191  0.75484144    -0.12000
C953        C  0.67543727  0.22676791  0.76025886    -0.10400
C954        C  0.64560653  0.21338324  0.74964818    -0.12000
C955        C  0.59078972  0.06472734  0.89523367    -0.10400
C956        C  0.61192426  0.07527369  0.87080580    -0.12000
C957        C  0.71142488  0.19757706  0.79437411    -0.10400
C958        C  0.69823822  0.16870404  0.80055984    -0.12000
C959        C  0.71358814  0.05321835  0.79680871    -0.10400
C960        C  0.69987721  0.06867137  0.80227136    -0.12000
C961        C  0.90298072  0.46996597  0.67812860    -0.10400
C962        C  0.88172122  0.45928016  0.70247972    -0.12000
C963        C  0.78325387  0.48323106  0.78081061    -0.10400
C964        C  0.79642339  0.46751686  0.77415127    -0.12000
C965        C  0.79355174  0.36539447  0.77121213    -0.10400
C966        C  0.77979912  0.33642276  0.77718141    -0.12000
C967        C  0.94338168  0.39001236  0.89990801    -0.10400
C968        C  0.95644939  0.41026339  0.92302284    -0.12000
C969        C  0.84557368  0.32116346  0.82175543    -0.10400
C970        C  0.81569603  0.30733172  0.81119992    -0.12000
C971        C  0.95046331  0.31715176  0.81775755    -0.10400
C972        C  0.96506792  0.30366846  0.80781722    -0.12000
C973        C  0.92803088  0.86650723  0.37184818     0.83100
N974        N  0.89520411  0.85627109  0.35992734    -0.75200
C975        C  0.88091308  0.83371199  0.33352343     0.85500
N976        N  0.89928697  0.82130015  0.31942226    -0.75200
C977        C  0.93199245  0.83159867  0.33131638     0.85600
N978        N  0.94631130  0.85408576  0.35758963    -0.76900
C979        C  0.85339375  0.94520493  0.22857419     0.83100
N980        N  0.83981621  0.96279929  0.24053585    -0.75200
C981        C  0.81159741  0.94897533  0.26324190     0.85500
N982        N  0.79657636  0.91719937  0.27363182    -0.75200
C983        C  0.81011759  0.89948880  0.26167126     0.85600
N984        N  0.83835940  0.91350530  0.23897351    -0.76900
C985        C  0.64019244  0.58933402  0.34476068     0.83100
N986        N  0.65498058  0.57241123  0.33412102    -0.75200
C987        C  0.68338990  0.58646790  0.31166892     0.85500
N988        N  0.69737372  0.61783967  0.30020980    -0.75200
C989        C  0.68258672  0.63486739  0.31085923     0.85600
N990        N  0.65418853  0.62060998  0.33332777    -0.76900
C991        C  0.78006917  0.78743271  0.29843062     0.05200
C992        C  0.76276729  0.80133537  0.28221810     0.05100
C993        C  0.72839708  0.78072462  0.26973469    -0.15400
C994        C  0.71108467  0.74656985  0.27314097     0.05200
C995        C  0.72838427  0.73265729  0.28937811     0.05100
C996        C  0.76276189  0.75328398  0.30186416    -0.15400
H997        H  0.77616681  0.74268456  0.31437420     0.07200
H998        H  0.71501108  0.79134324  0.25722596     0.07200
C999        C  0.56245351  0.66865891  0.20074374     0.83100
N1000       N  0.59531684  0.67857420  0.21224060    -0.75200
C1001       C  0.61036730  0.70150398  0.23817391     0.85500
N1002       N  0.59268631  0.71459712  0.25228995    -0.75200
C1003       C  0.55993048  0.70464557  0.24084250     0.85600
N1004       N  0.54482823  0.68176138  0.21499993    -0.76900
C1005       C  0.56832902  0.93405671  0.19909479     0.83100
N1006       N  0.60051461  0.95669473  0.21198514    -0.75200
C1007       C  0.61417037  0.94872531  0.23945331     0.85500
N1008       N  0.59579238  0.91814172  0.25374592    -0.75200
C1009       C  0.56364619  0.89564206  0.24092143     0.85600
N1010       N  0.54994920  0.90356147  0.21355599    -0.76900
C1011       C  0.93160505  0.60407171  0.37394024     0.83100
N1012       N  0.94837627  0.63456309  0.35951015    -0.75200
C1013       C  0.93271214  0.64181153  0.33357146     0.85500
N1014       N  0.90021241  0.61866398  0.32216630    -0.75200
C1015       C  0.88337872  0.58810504  0.33647461     0.85600
N1016       N  0.89899658  0.58077520  0.36252803    -0.76900
C1017       C  0.98144238  0.78624553  0.29713109     0.05200
C1018       C  0.51288280  0.80151637  0.27682489     0.05100
C1019       C  0.52797328  0.78373393  0.26681590    -0.15400
C1020       C  0.51201127  0.75089754  0.27692430     0.05200
C1021       C  0.98070353  0.73568735  0.29743517     0.05100
C1022       C  0.96557413  0.75344699  0.30741806    -0.15400
H1023       H  0.94140614  0.74172435  0.32324107     0.07200
H1024       H  0.55212580  0.79544015  0.25096971     0.07200
C1025       C  0.76587960  0.50110645  0.28592312     0.05200
C1026       C  0.78277460  0.53208206  0.30213238     0.05100
C1027       C  0.76514146  0.54881472  0.30527915    -0.15400
C1028       C  0.73084189  0.53516216  0.29247435     0.05200
C1029       C  0.71392493  0.00410852  0.27643001     0.05100
C1030       C  0.73155128  0.98740621  0.27329426    -0.15400
H1031       H  0.71845840  0.96356585  0.26079418     0.07200
H1032       H  0.77827500  0.57269790  0.31767658     0.07200
Zr1033     Zr  0.50785676  0.52193678  0.10676684     2.17500
O1034       O  0.54820837  0.53818857  0.15681494    -0.48500
O1035       O  0.95788098  0.49695329  0.14869088    -0.71700
O1036       O  0.52145310  0.57294307  0.13387784    -0.78400
O1037       O  0.51980305  0.95011140  0.09023070    -0.80200
O1038       O  0.51396325  0.60379477  0.09330982    -0.75800
O1039       O  0.52478786  0.98638263  0.13220294    -0.87400
O1040       O  0.90761736  0.97267016  0.11644108    -0.73400
O1041       O  0.96544726  0.53073484  0.08074217    -0.82900
O1042       O  0.96591054  0.97121271  0.08020683    -0.82600
O1043       O  0.54082158  0.56595044  0.06452980    -0.69300
O1044       O  0.54011556  0.51098727  0.06341986    -0.81500
Zr1045     Zr  0.98654593  0.51254011  0.46706945     2.26400
Zr1046     Zr  0.99752989  0.57372499  0.03746203     2.06300
Zr1047     Zr  0.99756290  0.96057379  0.03600868     2.10000
Zr1048     Zr  0.92387169  0.98019100  0.05369567     1.78800
O1049       O  0.54215421  0.94910928  0.01775571    -0.90300
O1050       O  0.88411073  0.49977676  0.06050500    -0.38100
O1051       O  0.95452992  0.96864392  0.00939204    -0.74700
O1052       O  0.95413384  0.52327293  0.01044606    -0.93400
O1053       O  0.52895113  0.56299124  0.99346969    -0.86700
O1054       O  0.52894098  0.50352573  0.49293508    -0.89600
C1055       C  0.92420463  0.98059100  0.14596491     1.04200
C1056       C  0.52755850  0.96269656  0.12154268     1.17100
C1057       C  0.52197834  0.59866359  0.12438238     1.07900
O1058       O  0.95578464  0.58998419  0.05068170    -0.91700
O1059       O  0.97868992  0.58635624  0.48214704    -0.87500
O1060       O  0.97749419  0.55256154  0.43903012    -0.80600
C1061       C  0.97383095  0.57566486  0.44998830     1.14500
O1062       O  0.61924691  0.57798064  0.06223494    -0.93700
Zr1063     Zr  0.57088323  0.55389736  0.01998271     1.88900
O1064       O  0.53592346  0.53709137  0.42461958    -0.70300
O1065       O  0.54519972  0.62883064  0.02115336    -0.49600
O1066       O  0.60661736  0.61300817  0.01134473    -0.94300
O1067       O  0.61104930  0.53481634  0.01218544    -0.51500
O1068       O  0.58627132  0.56225177  0.45691300    -0.70900
C1069       C  0.56960499  0.55402480  0.42739211     1.01500
O1070       O  0.93825979  0.98985362  0.42430685    -0.59700
O1071       O  0.95488193  0.90359198  0.05169380    -0.54500
O1072       O  0.97498200  0.96318225  0.43820694    -0.91200
O1073       O  0.97528579  0.92960348  0.48081344    -0.89600
O1074       O  0.88784012  0.92104577  0.06160670    -0.89900
O1075       O  0.87479997  0.95496369  0.01246435    -0.88700
C1076       C  0.97008326  0.93588793  0.44891060     1.20300
H1077       H  0.95505028  0.95382861  0.09782887     0.36300
H1078       H  0.93657747  0.52568922  0.99871067     0.47100
H1079       H  0.53980454  0.99722123  0.47500611     0.40700
H1080       H  0.55842154  0.58556161  0.07646184     0.37100
H1081       H  0.86293445  0.98166348  0.07272784     0.28900
H1082       H  0.53526772  0.64260214  0.02521225     0.34900
H1083       H  0.62714438  0.61701717  0.49661569     0.40800
H1084       H  0.86695197  0.91699205  0.07549641     0.35200
H1085       H  0.96777570  0.89235278  0.04826167     0.34100
H1086       H  0.52979333  0.92495601  0.01815219     0.35800
H1087       H  0.62931262  0.55046204  0.49515908     0.34800
H1088       H  0.88582032  0.95665567  0.98884631     0.38800
H1089       H  0.92290674  0.96630132  0.43029010     0.31500
H1090       H  0.53625228  0.54136196  0.17734426     0.35700
H1091       H  0.64106987  0.59076290  0.04765625     0.38600
H1092       H  0.95140501  0.90333166  0.07788486     0.31200
H1093       H  0.92353434  0.99866731  0.43113149     0.44100
H1094       H  0.94408711  0.57851000  0.07333057     0.34100
H1095       H  0.89523565  0.51714515  0.07870075     0.43200
H1096       H  0.59761115  0.51419341  0.49868578     0.33600
H1097       H  0.56288974  0.63528785  0.04012608     0.33600
H1098       H  0.56849201  0.56030268  0.15068567     0.33900
C1099       C  0.94826325  0.59668184  0.40154720    -0.10400
C1100       C  0.96143282  0.58909256  0.42430552    -0.12000
C1101       C  0.84827370  0.56446088  0.32524266    -0.10400
C1102       C  0.81841634  0.54790005  0.31489556    -0.12000
C1103       C  0.96391335  0.70211920  0.30887029    -0.10400
C1104       C  0.94979243  0.67435807  0.31947790    -0.12000
C1105       C  0.55363550  0.94225150  0.17017844    -0.10400
C1106       C  0.54118234  0.95008924  0.14688087    -0.12000
C1107       C  0.64884153  0.97178100  0.25223271    -0.10400
C1108       C  0.67840797  0.98828564  0.26334406    -0.12000
C1109       C  0.54495595  0.86301233  0.25501190    -0.10400
C1110       C  0.52994097  0.83516828  0.26556944    -0.12000
C1111       C  0.53398839  0.62402657  0.15041193    -0.10400
C1112       C  0.54647243  0.64462928  0.17320933    -0.12000
C1113       C  0.52800417  0.73330121  0.26549424    -0.10400
C1114       C  0.54207116  0.71954092  0.25479945    -0.12000
C1115       C  0.67545833  0.72678278  0.26028613    -0.10400
C1116       C  0.64562327  0.71340122  0.24969215    -0.12000
C1117       C  0.59081598  0.56473409  0.39524637    -0.10400
C1118       C  0.61196985  0.57529472  0.37083736    -0.12000
C1119       C  0.71144586  0.69758132  0.29435008    -0.10400
C1120       C  0.69824787  0.66871295  0.30055346    -0.12000
C1121       C  0.71359793  0.55324739  0.29675006    -0.10400
C1122       C  0.69988360  0.56869410  0.30222485    -0.12000
C1123       C  0.90291847  0.96992958  0.17812195    -0.10400
C1124       C  0.88165021  0.95924171  0.20246675    -0.12000
C1125       C  0.78321087  0.98320531  0.28084155    -0.10400
C1126       C  0.79637709  0.96748653  0.27418701    -0.12000
C1127       C  0.79355525  0.86538755  0.27128393    -0.10400
C1128       C  0.77981594  0.83641885  0.27725026    -0.12000
C1129       C  0.94336058  0.88998590  0.39997782    -0.10400
C1130       C  0.95643888  0.91025554  0.42307035    -0.12000
C1131       C  0.84557659  0.82115880  0.32180420    -0.10400
C1132       C  0.81570734  0.80731826  0.31123194    -0.12000
C1133       C  0.95043751  0.81712475  0.31782384    -0.10400
C1134       C  0.96503076  0.80364241  0.30784879    -0.12000
C1135       C  0.92805554  0.86654390  0.87176409     0.83100
N1136       N  0.89521889  0.85629156  0.85985873    -0.75200
C1137       C  0.88091997  0.83372285  0.83346330     0.85500
N1138       N  0.89929734  0.82131388  0.81935830    -0.75200
C1139       C  0.93201460  0.83162993  0.83123590     0.85600
N1140       N  0.94633881  0.85412837  0.85749792    -0.76900
C1141       C  0.85345942  0.94524040  0.72857895     0.83100
N1142       N  0.83988226  0.96283600  0.74053546    -0.75200
C1143       C  0.81164207  0.94900413  0.76321268     0.85500
N1144       N  0.79659758  0.91721892  0.77357678    -0.75200
C1145       C  0.81013811  0.89950598  0.76162221     0.85600
N1146       N  0.83840376  0.91353163  0.73895428    -0.76900
C1147       C  0.64014227  0.58930381  0.84472137     0.83100
N1148       N  0.65494499  0.57238620  0.83411000    -0.75200
C1149       C  0.68337614  0.58644793  0.81168615     0.85500
N1150       N  0.69737028  0.61782419  0.80022975    -0.75200
C1151       C  0.68256695  0.63484777  0.81084881     0.85600
N1152       N  0.65414464  0.62058045  0.83328642    -0.76900
C1153       C  0.78004513  0.78744379  0.79842005     0.05200
C1154       C  0.76274561  0.80133865  0.78217961     0.05100
C1155       C  0.72837257  0.78071768  0.76970193    -0.15400
C1156       C  0.71105709  0.74656232  0.77313411     0.05200
C1157       C  0.72835239  0.73265723  0.78940233     0.05100
C1158       C  0.76272901  0.75329528  0.80189009    -0.15400
H1159       H  0.77613340  0.74270343  0.81441801     0.07200
H1160       H  0.71498902  0.79132847  0.75716985     0.07200
C1161       C  0.56241460  0.66862492  0.70072951     0.83100
N1162       N  0.59529173  0.67855643  0.71219783    -0.75200
C1163       C  0.61034590  0.70148113  0.73813662     0.85500
N1164       N  0.59265573  0.71455374  0.75228219    -0.75200
C1165       C  0.55988667  0.70458504  0.74086391     0.85600
N1166       N  0.54477971  0.68170474  0.71501884    -0.76900
C1167       C  0.56832694  0.93405114  0.69911480     0.83100
N1168       N  0.60051586  0.95668409  0.71200460    -0.75200
C1169       C  0.61419422  0.94869440  0.73943384     0.85500
N1170       N  0.59583375  0.91809646  0.75368946    -0.75200
C1171       C  0.56368380  0.89560350  0.74086819     0.85600
N1172       N  0.54996420  0.90354184  0.71354162    -0.76900
C1173       C  0.93163821  0.60407305  0.87395444     0.83100
N1174       N  0.94839517  0.63456755  0.85953663    -0.75200
C1175       C  0.93271818  0.64181471  0.83361242     0.85500
N1176       N  0.90022005  0.61866406  0.82220813    -0.75200
C1177       C  0.88340011  0.58810036  0.83650147     0.85600
N1178       N  0.89903071  0.58077092  0.86254260    -0.76900
C1179       C  0.98147845  0.78625778  0.79714152     0.05200
C1180       C  0.51291139  0.80149904  0.77682317     0.05100
C1181       C  0.52798587  0.78369837  0.76683450    -0.15400
C1182       C  0.51201120  0.75086833  0.77696885     0.05200
C1183       C  0.98071315  0.73568793  0.79749236     0.05100
C1184       C  0.96560382  0.75346759  0.80746310    -0.15400
H1185       H  0.94144036  0.74176383  0.82329277     0.07200
H1186       H  0.55213108  0.79538327  0.75097709     0.07200
C1187       C  0.76591132  0.50111836  0.78591245     0.05200
C1188       C  0.78279051  0.53207837  0.80215568     0.05100
C1189       C  0.76513923  0.54879285  0.80533241    -0.15400
C1190       C  0.73083909  0.53513828  0.79252335     0.05200
C1191       C  0.71393878  0.00409781  0.77644586     0.05100
C1192       C  0.73158373  0.98741486  0.77328028    -0.15400
H1193       H  0.71850527  0.96358583  0.76075506     0.07200
H1194       H  0.77826068  0.57266553  0.81775292     0.07200
Zr1195     Zr  0.50787624  0.52195622  0.60674102     2.17500
O1196       O  0.54822332  0.53822327  0.65679111    -0.48500
O1197       O  0.95792866  0.49700420  0.64868246    -0.71700
O1198       O  0.52145233  0.57295847  0.63382813    -0.78400
O1199       O  0.51981557  0.95013161  0.59025708    -0.80200
O1200       O  0.51389686  0.60378380  0.59328102    -0.75800
O1201       O  0.52480827  0.98641595  0.63221361    -0.87400
O1202       O  0.90765732  0.97266875  0.61644648    -0.73400
O1203       O  0.96545868  0.53074474  0.58072199    -0.82900
O1204       O  0.96591983  0.97122628  0.58020294    -0.82600
O1205       O  0.54081595  0.56596794  0.56450246    -0.69300
O1206       O  0.54015056  0.51100900  0.56341873    -0.81500
Zr1207     Zr  0.98653547  0.51252895  0.96707677     2.26400
Zr1208     Zr  0.99751262  0.57372627  0.53743082     2.06300
Zr1209     Zr  0.99758639  0.96059444  0.53602088     2.10000
Zr1210     Zr  0.92387744  0.98020237  0.55369108     1.78800
O1211       O  0.54218629  0.94913631  0.51778125    -0.90300
O1212       O  0.88414397  0.49980703  0.56063526    -0.38100
O1213       O  0.95455506  0.96866609  0.50939871    -0.74700
O1214       O  0.95412183  0.52327169  0.51042210    -0.93400
O1215       O  0.52895471  0.56300354  0.49345842    -0.86700
O1216       O  0.52893078  0.50350934  0.99293314    -0.89600
C1217       C  0.92425344  0.98061931  0.64596521     1.04200
C1218       C  0.52756975  0.96272149  0.62156780     1.17100
C1219       C  0.52193827  0.59866162  0.62434404     1.07900
O1220       O  0.95575188  0.58997247  0.55063094    -0.91700
O1221       O  0.97872947  0.58638273  0.98218307    -0.87500
O1222       O  0.97747809  0.55255721  0.93907320    -0.80600
C1223       C  0.97384830  0.57567992  0.95002851     1.14500
O1224       O  0.61926516  0.57810963  0.56222090    -0.93700
Zr1225     Zr  0.57089364  0.55391742  0.51997644     1.88900
O1226       O  0.53590795  0.53706538  0.92462366    -0.70300
O1227       O  0.54522550  0.62881263  0.52112601    -0.49600
O1228       O  0.60666247  0.61301475  0.51122867    -0.94300
O1229       O  0.61101427  0.53477916  0.51223386    -0.51500
O1230       O  0.58625910  0.56227187  0.95691004    -0.70900
C1231       C  0.56958909  0.55402268  0.92738956     1.01500
O1232       O  0.93829119  0.98990263  0.92426181    -0.59700
O1233       O  0.95488872  0.90361971  0.55171955    -0.54500
O1234       O  0.97496400  0.96317664  0.93819297    -0.91200
O1235       O  0.97528399  0.92959512  0.98078255    -0.89600
O1236       O  0.88780458  0.92105220  0.56152837    -0.89900
O1237       O  0.87477281  0.95503378  0.51249588    -0.88700
C1238       C  0.97007887  0.93588421  0.94888156     1.20300
H1239       H  0.95506240  0.95384454  0.59782778     0.36300
H1240       H  0.93656134  0.52567891  0.49868172     0.47100
H1241       H  0.53979493  0.99720624  0.97500318     0.40700
H1242       H  0.55841063  0.58558326  0.57643193     0.37100
H1243       H  0.86294045  0.98165618  0.57278416     0.28900
H1244       H  0.53530874  0.64260047  0.52515269     0.34900
H1245       H  0.62705031  0.61703647  0.99662552     0.40800
H1246       H  0.86707060  0.91702143  0.57569654     0.35200
H1247       H  0.96774383  0.89235452  0.54819543     0.34100
H1248       H  0.52980364  0.92498113  0.51808192     0.35800
H1249       H  0.62930442  0.55048557  0.99506802     0.34800
H1250       H  0.88568633  0.95612988  0.48898512     0.38800
H1251       H  0.92294275  0.96633622  0.93018042     0.31500
H1252       H  0.53624053  0.54135798  0.67732367     0.35700
H1253       H  0.64109681  0.59074560  0.54762251     0.38600
H1254       H  0.95148693  0.90335111  0.57792409     0.31200
H1255       H  0.92354279  0.99868674  0.93110820     0.44100
H1256       H  0.94405660  0.57850395  0.57328318     0.34100
H1257       H  0.89524849  0.51710300  0.57891123     0.43200
H1258       H  0.59763804  0.51420689  0.99867887     0.33600
H1259       H  0.56289566  0.63526252  0.54011841     0.33600
H1260       H  0.56848495  0.56035456  0.65068130     0.33900
C1261       C  0.94829913  0.59669529  0.90156911    -0.10400
C1262       C  0.96146399  0.58911613  0.92434245    -0.12000
C1263       C  0.84829261  0.56445393  0.82527145    -0.10400
C1264       C  0.81843397  0.54789775  0.81492221    -0.12000
C1265       C  0.96390549  0.70212430  0.80893688    -0.10400
C1266       C  0.94978340  0.67436264  0.81953589    -0.12000
C1267       C  0.55362117  0.94226120  0.67022139    -0.10400
C1268       C  0.54117624  0.95010784  0.64692224    -0.12000
C1269       C  0.64886114  0.97175346  0.75222612    -0.10400
C1270       C  0.67842253  0.98826727  0.76335119    -0.12000
C1271       C  0.54499549  0.86297327  0.75494899    -0.10400
C1272       C  0.52997550  0.83513743  0.76552794    -0.12000
C1273       C  0.53393989  0.62401653  0.65037804    -0.10400
C1274       C  0.54642939  0.64460736  0.67318588    -0.12000
C1275       C  0.52797533  0.73324508  0.76554285    -0.10400
C1276       C  0.54202609  0.71947197  0.75484143    -0.12000
C1277       C  0.67543721  0.72676787  0.76025889    -0.10400
C1278       C  0.64560648  0.71338318  0.74964822    -0.12000
C1279       C  0.59078978  0.56472732  0.89523370    -0.10400
C1280       C  0.61192432  0.57527364  0.87080583    -0.12000
C1281       C  0.71142493  0.69757702  0.79437411    -0.10400
C1282       C  0.69823827  0.66870400  0.80055983    -0.12000
C1283       C  0.71358807  0.55321828  0.79680877    -0.10400
C1284       C  0.69987730  0.56867141  0.80227154    -0.12000
C1285       C  0.90298080  0.96996604  0.67812862    -0.10400
C1286       C  0.88172132  0.95928023  0.70247975    -0.12000
C1287       C  0.78325385  0.98323106  0.78081059    -0.10400
C1288       C  0.79642341  0.96751689  0.77415125    -0.12000
C1289       C  0.79355178  0.86539444  0.77121200    -0.10400
C1290       C  0.77979907  0.83642274  0.77718133    -0.12000
C1291       C  0.94338159  0.89001234  0.89990804    -0.10400
C1292       C  0.95644931  0.91026341  0.92302282    -0.12000
C1293       C  0.84557370  0.82116352  0.82175541    -0.10400
C1294       C  0.81569603  0.80733178  0.81119992    -0.12000
C1295       C  0.95046329  0.81715172  0.81775762    -0.10400
C1296       C  0.96506785  0.80366838  0.80781722    -0.12000
loop_ 
_geom_bond_atom_site_label_1 
_geom_bond_atom_site_label_2 
_geom_bond_distance 
_geom_bond_site_symmetry_2 
_ccdc_geom_bond_type 
C1            N2   1.361       .  A
C1            N6   1.355       .  A
C1          C157   1.434       .  S
N2            C3   1.359       .  A
C3            N4   1.356       .  A
C3          C159   1.437       .  S
N4            C5   1.355       .  A
C5            N6   1.354       .  A
C5          C161   1.428       .  S
C7            N8   1.358       .  A
C7           N12   1.358       .  A
C7          C152   1.441       .  S
N8            C9   1.358       .  A
C9           N10   1.361       .  A
C9          C154   1.443       .  S
N10          C11   1.361       .  A
C11          N12   1.359       .  A
C11         C155   1.444       .  S
C13          N14   1.357       .  A
C13          N18   1.357       .  A
C13         C146   1.439       .  S
N14          C15   1.358       .  A
C15          N16   1.362       .  A
C15         C150   1.444       .  S
N16          C17   1.362       .  A
C17          N18   1.358       .  A
C17         C148   1.444       .  S
C19         C160   1.445       .  S
C19          C20   1.410       .  A
C19          C24   1.405       .  A
C20         C156   1.452       .  S
C20          C21   1.403       .  A
C21          C22   1.405       .  A
C21          H26   1.085       .  S
C22         C143   1.445       .  S
C22          C23   1.411       .  A
C23         C147   1.452       .  S
C23          C24   1.403       .  A
C24          H25   1.085       .  S
C27          N28   1.360       .  A
C27          N32   1.356       .  A
C27         C140   1.434       .  S
N28          C29   1.359       .  A
C29          N30   1.355       .  A
C29         C144   1.437       .  S
N30          C31   1.355       .  A
C31          N32   1.355       .  A
C31         C142   1.429       .  S
C33          N34   1.359       .  A
C33          N38   1.355       .  A
C33         C133   1.434       .  S
N34          C35   1.358       .  A
C35          N36   1.356       .  A
C35         C135   1.435       .  S
N36          C37   1.355       .  A
C37          N38   1.355       .  A
C37         C137   1.430       .  S
C39          N40   1.355       .  A
C39          N44   1.360       .  A
C39         C127   1.433       .  S
N40          C41   1.355       .  A
C41          N42   1.355       .  A
C41         C132   1.429       .  S
N42          C43   1.356       .  A
C43          N44   1.358       .  A
C43         C129   1.435       .  S
C45         C162   1.437       .  S
C45          C50   1.399       .  A
C45         C694   1.406       .  A
C46         C138   1.440       .  S
C46          C47   1.398       .  A
C46         C693   1.406   1_455  A
C47          C48   1.398       .  A
C47          H52   1.085       .  S
C48         C141   1.438       .  S
C48         C697   1.406   1_455  A
C49         C131   1.439       .  S
C49          C50   1.398       .  A
C49         C696   1.406       .  A
C50          H51   1.085       .  S
C53         C477   1.451   1_545  S
C53          C54   1.410       .  A
C53         C382   1.401   1_545  A
C54         C130   1.444       .  S
C54          C55   1.405       .  A
C55          C56   1.403       .  A
C55          H60   1.085       .  S
C56         C149   1.452       .  S
C56         C381   1.410       .  A
C57         C136   1.443       .  S
C57          C58   1.404       .  A
C57         C380   1.410       .  A
C58         C377   1.401       .  A
C58          H59   1.085       .  S
Zr61         O62   2.442       .  S
Zr61         O64   2.429       .  S
Zr61        O711   2.445   1_445  S
Zr61        O391   2.417   1_545  S
Zr61         O71   2.407       .  S
Zr61         O72   2.404       .  S
Zr61        O717   2.377   1_455  S
Zr61       O1042   2.381   1_445  S
O62         H118   0.991       .  S
O62         H126   0.990       .  S
O63        Zr709   2.445   1_565  S
O63         C407   1.284       .  A
O64          C85   1.281       .  A
O65        Zr723   2.439   1_455  S
O65          C84   1.284       .  A
O66        Zr722   2.434   1_455  S
O66          C85   1.283       .  A
O67        Zr385   2.417       .  S
O67          C84   1.280       .  A
O68         Zr76   2.420       .  S
O68          C83   1.279       .  A
O69         Zr74   2.401       .  S
O69        Zr709   2.377       .  S
O69        Zr400   2.379   1_545  S
O70         Zr75   2.398       .  S
O70         Zr76   2.375       .  S
O70       Zr1033   2.381       .  S
O70         H105   0.966       .  S
O71         Zr91   2.394       .  S
O71        Zr722   2.400   1_455  S
O71         H108   0.966       .  S
O72         Zr91   2.395       .  S
O72       Zr1047   2.393   1_445  S
Zr73        O422   2.450   1_545  S
Zr73         O88   2.418       .  S
Zr73        O740   2.440       .  S
Zr73        O424   2.414   1_545  S
Zr73        O565   2.400   1_545  S
Zr73        O242   2.403       .  S
Zr73        O891   2.376       .  S
Zr73        O730   2.381       .  S
Zr74         O86   2.434       .  S
Zr74        O741   2.436       .  S
Zr74        O714   2.434       .  S
Zr74        O249   2.439   1_554  S
Zr74         O80   2.397       .  S
Zr74        O719   2.400       .  S
Zr74        O729   2.388   1_554  S
Zr75         O99   2.438       .  S
Zr75        O725   2.436       .  S
Zr75        O713   2.439       .  S
Zr75        O263   2.444   1_554  S
Zr75         O79   2.391       .  S
Zr75       O1044   2.393       .  S
Zr75       O1216   2.390   1_554  S
Zr76        O102   2.436       .  S
Zr76        O103   2.435       .  S
Zr76        O402   2.437       .  S
Zr76         O79   2.393       .  S
Zr76        O393   2.379       .  S
Zr76        O404   2.393       .  S
O77        Zr723   2.436   1_455  S
O77         H114   0.990       .  S
O78        Zr400   2.437       .  S
O78         H123   0.990   1_565  S
O78         H433   0.990       .  S
O79        Zr559   2.400   1_554  S
O80        Zr235   2.403   1_554  S
O80        Zr400   2.393   1_545  S
O80         H106   0.966   1_554  S
O81         Zr91   2.375   1_556  S
O81        Zr883   2.376   1_455  S
O81        Zr722   2.388   1_456  S
O82        Zr721   2.381   1_455  S
O82       Zr1209   2.390   1_445  S
O82        Zr253   2.379       .  S
O82         H431   0.966   1_545  S
C83         C151   1.440       .  S
C83         O387   1.284       .  A
C84         C134   1.432       .  S
C85         C139   1.433       .  S
O86         H122   0.990       .  S
O87        Zr236   2.439       .  S
O87          C89   1.285       .  A
O88          C89   1.280       .  A
C89         C128   1.431       .  S
O90         Zr91   2.439       .  S
O90         H119   0.990       .  S
Zr91         O94   2.437       .  S
Zr91         O95   2.439       .  S
Zr91        O258   2.424   1_554  S
Zr91        O244   2.379   1_554  S
O92        Zr721   2.440   1_455  S
O92          C97   1.284       .  A
O93        Zr722   2.436   1_455  S
O93         H110   0.990       .  S
O93         H125   0.990       .  S
O94         H273   0.990   1_554  S
O95         H277   0.990   1_554  S
O95         H286   0.989   1_554  S
O96        Zr253   2.424       .  S
O96          C97   1.281       .  A
C97         C145   1.438       .  S
O98        Zr397   2.450       .  S
O98         H117   0.990       .  S
O98         H121   0.990       .  S
O99         H113   0.990       .  S
O99         H120   0.990       .  S
O100       Zr397   2.414       .  S
O100        C104   1.279       .  A
O101       Zr237   2.443       .  S
O101        C104   1.286       .  A
O102        H112   0.990       .  S
O103        H116   0.990   1_554  S
C104        C158   1.433       .  S
H107        O406   0.966       .  S
H109        O402   0.990       .  S
H111        O256   0.990       .  S
H115        O257   0.990       .  S
H124        O257   0.989       .  S
C127        C128   1.204       .  T
C129        C130   1.206       .  T
C131        C132   1.202       .  T
C133        C134   1.205       .  T
C135        C136   1.206       .  T
C137        C138   1.203       .  T
C139        C140   1.205       .  T
C141        C142   1.202       .  T
C143        C144   1.207       .  T
C145        C146   1.208       .  T
C147        C148   1.211       .  T
C149        C150   1.211       .  T
C151        C152   1.209       .  T
C153        C377   1.451       .  S
C153        C154   1.210       .  T
C155        C156   1.211       .  T
C157        C158   1.205       .  T
C159        C160   1.207       .  T
C161        C162   1.202       .  T
C163        N164   1.361       .  A
C163        N168   1.355       .  A
C163        C319   1.434       .  S
N164        C165   1.360       .  A
C165        N166   1.356       .  A
C165        C321   1.437       .  S
N166        C167   1.355       .  A
C167        N168   1.354       .  A
C167        C323   1.428       .  S
C169        N170   1.358       .  A
C169        N174   1.358       .  A
C169        C314   1.441       .  S
N170        C171   1.358       .  A
C171        N172   1.361       .  A
C171        C316   1.443       .  S
N172        C173   1.361       .  A
C173        N174   1.359       .  A
C173        C317   1.444       .  S
C175        N176   1.357       .  A
C175        N180   1.357       .  A
C175        C308   1.439       .  S
N176        C177   1.358       .  A
C177        N178   1.362       .  A
C177        C312   1.444       .  S
N178        C179   1.362       .  A
C179        N180   1.358       .  A
C179        C310   1.444       .  S
C181        C322   1.446       .  S
C181        C182   1.410       .  A
C181        C186   1.405       .  A
C182        C318   1.452       .  S
C182        C183   1.403       .  A
C183        C184   1.405       .  A
C183        H188   1.085       .  S
C184        C305   1.445       .  S
C184        C185   1.411       .  A
C185        C309   1.452       .  S
C185        C186   1.403       .  A
C186        H187   1.085       .  S
C189        N190   1.360       .  A
C189        N194   1.356       .  A
C189        C302   1.434       .  S
N190        C191   1.359       .  A
C191        N192   1.355       .  A
C191        C306   1.437       .  S
N192        C193   1.355       .  A
C193        N194   1.355       .  A
C193        C304   1.429       .  S
C195        N196   1.359       .  A
C195        N200   1.355       .  A
C195        C295   1.434       .  S
N196        C197   1.358       .  A
C197        N198   1.356       .  A
C197        C297   1.435       .  S
N198        C199   1.355       .  A
C199        N200   1.355       .  A
C199        C299   1.430       .  S
C201        N202   1.355       .  A
C201        N206   1.360       .  A
C201        C289   1.433       .  S
N202        C203   1.355       .  A
C203        N204   1.355       .  A
C203        C294   1.429       .  S
N204        C205   1.356       .  A
C205        N206   1.359       .  A
C205        C291   1.435       .  S
C207        C324   1.437       .  S
C207        C856   1.406       .  A
C207        C212   1.399       .  A
C208        C300   1.439       .  S
C208        C855   1.406   1_455  A
C208        C209   1.398       .  A
C209        C210   1.398       .  A
C209        H214   1.085       .  S
C210        C303   1.438       .  S
C210        C859   1.406   1_455  A
C211        C293   1.439       .  S
C211        C858   1.406       .  A
C211        C212   1.398       .  A
C212        H213   1.085       .  S
C215        C639   1.451   1_545  S
C215        C216   1.410       .  A
C215        C544   1.401   1_545  A
C216        C292   1.444       .  S
C216        C217   1.405       .  A
C217        C218   1.403       .  A
C217        H222   1.085       .  S
C218        C311   1.452       .  S
C218        C543   1.410       .  A
C219        C298   1.443       .  S
C219        C542   1.410       .  A
C219        C220   1.404       .  A
C220        C539   1.401       .  A
C220        H221   1.085       .  S
Zr223       O224   2.442       .  S
Zr223       O873   2.445   1_445  S
Zr223       O226   2.428       .  S
Zr223       O553   2.416   1_545  S
Zr223       O879   2.377   1_455  S
Zr223      O1204   2.381   1_445  S
Zr223       O233   2.407       .  S
Zr223       O234   2.403       .  S
O224        H280   0.991       .  S
O224        H288   0.990       .  S
O225       Zr871   2.445   1_565  S
O225        C569   1.284       .  A
O226        C247   1.280       .  A
O227       Zr885   2.439   1_455  S
O227        C246   1.284       .  A
O228       Zr884   2.434   1_455  S
O228        C247   1.283       .  A
O229       Zr547   2.416       .  S
O229        C246   1.280       .  A
O230       Zr238   2.420       .  S
O230        C245   1.279       .  A
O231       Zr871   2.377       .  S
O231       Zr236   2.400       .  S
O231       Zr562   2.379   1_545  S
O232      Zr1195   2.381       .  S
O232       Zr237   2.398       .  S
O232       Zr238   2.376       .  S
O232        H267   0.966       .  S
O233       Zr884   2.400   1_455  S
O233       Zr253   2.394       .  S
O233        H270   0.966       .  S
O234      Zr1209   2.393   1_445  S
O234       Zr253   2.395       .  S
Zr235       O584   2.450   1_545  S
Zr235       O902   2.440       .  S
Zr235       O586   2.414   1_545  S
Zr235       O250   2.418       .  S
Zr235       O403   2.400   1_546  S
Zr235       O729   2.376       .  S
Zr235       O892   2.381       .  S
Zr236       O903   2.436       .  S
Zr236       O248   2.434       .  S
Zr236       O876   2.434       .  S
Zr236       O881   2.400       .  S
Zr236       O242   2.397       .  S
Zr236       O891   2.388       .  S
Zr237       O887   2.436       .  S
Zr237       O261   2.438       .  S
Zr237       O875   2.439       .  S
Zr237      O1206   2.393       .  S
Zr237       O241   2.391       .  S
Zr237      O1054   2.390       .  S
Zr238       O264   2.436       .  S
Zr238       O265   2.435       .  S
Zr238       O564   2.437       .  S
Zr238       O555   2.379       .  S
Zr238       O241   2.393       .  S
Zr238       O566   2.393       .  S
O239       Zr885   2.436   1_455  S
O239        H276   0.990       .  S
O240       Zr562   2.437       .  S
O240        H595   0.990       .  S
O240        H285   0.990   1_565  S
O241       Zr397   2.400       .  S
O242       Zr562   2.393   1_545  S
O242        H268   0.966       .  S
O243       Zr721   2.376   1_455  S
O243       Zr884   2.388   1_455  S
O243       Zr253   2.375       .  S
O244       Zr883   2.381   1_455  S
O244      Zr1047   2.390   1_446  S
O244        H593   0.966   1_545  S
C245        C313   1.440       .  S
C245        O549   1.284       .  A
C246        C296   1.433       .  S
C247        C301   1.433       .  S
O248        H284   0.990       .  S
O249        C251   1.285       .  A
O250        C251   1.280       .  A
C251        C290   1.431       .  S
O252       Zr253   2.439       .  S
O252        H281   0.990       .  S
Zr253       O256   2.437       .  S
Zr253       O257   2.439       .  S
O254       Zr883   2.440   1_455  S
O254        C259   1.284       .  A
O255       Zr884   2.436   1_455  S
O255        H272   0.990       .  S
O255        H287   0.990       .  S
O258        C259   1.281       .  A
C259        C307   1.439       .  S
O260       Zr559   2.450       .  S
O260        H279   0.990       .  S
O260        H283   0.990       .  S
O261        H275   0.990       .  S
O261        H282   0.990       .  S
O262       Zr559   2.414       .  S
O262        C266   1.279       .  A
O263        C266   1.286       .  A
O264        H274   0.990       .  S
O265        H278   0.990       .  S
C266        C320   1.433       .  S
H269        O568   0.966       .  S
H271        O564   0.990       .  S
C289        C290   1.204       .  T
C291        C292   1.206       .  T
C293        C294   1.202       .  T
C295        C296   1.205       .  T
C297        C298   1.206       .  T
C299        C300   1.203       .  T
C301        C302   1.205       .  T
C303        C304   1.202       .  T
C305        C306   1.207       .  T
C307        C308   1.208       .  T
C309        C310   1.211       .  T
C311        C312   1.211       .  T
C313        C314   1.209       .  T
C315        C539   1.451       .  S
C315        C316   1.210       .  T
C317        C318   1.211       .  T
C319        C320   1.205       .  T
C321        C322   1.207       .  T
C323        C324   1.202       .  T
C325        N326   1.361       .  A
C325        N330   1.355       .  A
C325        C481   1.434       .  S
N326        C327   1.359       .  A
C327        N328   1.356       .  A
C327        C483   1.437       .  S
N328        C329   1.355       .  A
C329        N330   1.354       .  A
C329        C485   1.428       .  S
C331        N332   1.358       .  A
C331        N336   1.358       .  A
C331        C476   1.441       .  S
N332        C333   1.358       .  A
C333        N334   1.361       .  A
C333        C478   1.443       .  S
N334        C335   1.361       .  A
C335        N336   1.359       .  A
C335        C479   1.444       .  S
C337        N338   1.357       .  A
C337        N342   1.357       .  A
C337        C470   1.439       .  S
N338        C339   1.358       .  A
C339        N340   1.362       .  A
C339        C474   1.444       .  S
N340        C341   1.362       .  A
C341        N342   1.358       .  A
C341        C472   1.444       .  S
C343        C484   1.445       .  S
C343        C344   1.410       .  A
C343        C348   1.405       .  A
C344        C480   1.452       .  S
C344        C345   1.403       .  A
C345        C346   1.405       .  A
C345        H350   1.085       .  S
C346        C467   1.445       .  S
C346        C347   1.411       .  A
C347        C471   1.452       .  S
C347        C348   1.403       .  A
C348        H349   1.085       .  S
C351        N352   1.360       .  A
C351        N356   1.356       .  A
C351        C464   1.434       .  S
N352        C353   1.359       .  A
C353        N354   1.355       .  A
C353        C468   1.437       .  S
N354        C355   1.355       .  A
C355        N356   1.355       .  A
C355        C466   1.429       .  S
C357        N358   1.359       .  A
C357        N362   1.355       .  A
C357        C457   1.434       .  S
N358        C359   1.358       .  A
C359        N360   1.356       .  A
C359        C459   1.435       .  S
N360        C361   1.355       .  A
C361        N362   1.355       .  A
C361        C461   1.430       .  S
C363        N364   1.355       .  A
C363        N368   1.360       .  A
C363        C451   1.433       .  S
N364        C365   1.355       .  A
C365        N366   1.355       .  A
C365        C456   1.429       .  S
N366        C367   1.356       .  A
C367        N368   1.358       .  A
C367        C453   1.435       .  S
C369        C486   1.437       .  S
C369       C1018   1.406       .  A
C369        C374   1.399       .  A
C370        C462   1.440       .  S
C370       C1017   1.406   1_455  A
C370        C371   1.398       .  A
C371        C372   1.398       .  A
C371        H376   1.085       .  S
C372        C465   1.438       .  S
C372       C1021   1.406   1_455  A
C373        C455   1.439       .  S
C373       C1020   1.406       .  A
C373        C374   1.398       .  A
C374        H375   1.085       .  S
C377        C378   1.410       .  A
C378        C454   1.444       .  S
C378        C379   1.405       .  A
C379        C380   1.403       .  A
C379        H384   1.085       .  S
C380        C473   1.452       .  S
C381        C460   1.443   1_545  S
C381        C382   1.404   1_545  A
C382        H383   1.085       .  S
Zr385       O386   2.442       .  S
Zr385      O1035   2.445   1_455  S
Zr385       O388   2.429       .  S
Zr385      O1041   2.377   1_455  S
Zr385       O718   2.381   1_455  S
Zr385       O395   2.407       .  S
Zr385       O396   2.404       .  S
O386        H442   0.991       .  S
O386        H450   0.990       .  S
O387      Zr1033   2.445       .  S
O388        C409   1.281       .  A
O389      Zr1047   2.439   1_455  S
O389        C408   1.284       .  A
O390      Zr1046   2.434   1_455  S
O390        C409   1.283       .  A
O391        C408   1.280       .  A
O392       Zr400   2.420       .  S
O392        C407   1.279       .  A
O393      Zr1033   2.377       .  S
O393       Zr398   2.401       .  S
O394       Zr709   2.381   1_565  S
O394       Zr399   2.398       .  S
O394       Zr400   2.375       .  S
O394        H429   0.966       .  S
O395      Zr1046   2.400   1_455  S
O395       Zr415   2.394       .  S
O395        H432   0.966       .  S
O396       Zr723   2.393   1_455  S
O396       Zr415   2.395       .  S
Zr397      O1064   2.440       .  S
Zr397       O412   2.418       .  S
Zr397       O566   2.403       .  S
Zr397      O1215   2.376       .  S
Zr397      O1054   2.381       .  S
Zr398      O1065   2.436       .  S
Zr398       O410   2.434       .  S
Zr398      O1038   2.434       .  S
Zr398       O573   2.439   1_554  S
Zr398      O1043   2.400       .  S
Zr398       O404   2.397       .  S
Zr398      O1053   2.388   1_554  S
Zr399      O1049   2.436       .  S
Zr399       O423   2.438       .  S
Zr399      O1037   2.439       .  S
Zr399       O587   2.444   1_554  S
Zr399       O720   2.393   1_565  S
Zr399       O403   2.391       .  S
Zr399       O892   2.390   1_564  S
Zr400       O426   2.436       .  S
Zr400       O427   2.435       .  S
Zr400       O403   2.393       .  S
O401      Zr1047   2.436   1_455  S
O401        H438   0.990       .  S
O402        H447   0.990       .  S
O404       Zr559   2.403   1_554  S
O404        H430   0.966   1_554  S
O405      Zr1207   2.376   1_455  S
O405      Zr1046   2.388   1_456  S
O405       Zr415   2.375   1_556  S
O406      Zr1045   2.381   1_455  S
O406       Zr885   2.390   1_455  S
O406       Zr577   2.379       .  S
C407        C475   1.440       .  S
C408        C458   1.432       .  S
C409        C463   1.433       .  S
O410        H446   0.990       .  S
O411       Zr560   2.439       .  S
O411        C413   1.285       .  A
O412        C413   1.280       .  A
C413        C452   1.431       .  S
O414       Zr415   2.439       .  S
O414        H443   0.990       .  S
Zr415       O418   2.437       .  S
Zr415       O419   2.439       .  S
Zr415       O582   2.424   1_554  S
Zr415       O568   2.379   1_554  S
O416      Zr1045   2.440   1_455  S
O416        C421   1.284       .  A
O417      Zr1046   2.436   1_455  S
O417        H434   0.990       .  S
O417        H449   0.990       .  S
O418        H597   0.990   1_554  S
O419        H601   0.990   1_554  S
O419        H610   0.989   1_554  S
O420       Zr577   2.424       .  S
O420        C421   1.281       .  A
C421        C469   1.438       .  S
O422        H441   0.990       .  S
O422        H445   0.990       .  S
O423        H437   0.990       .  S
O423        H444   0.990       .  S
O424        C428   1.279       .  A
O425       Zr561   2.443       .  S
O425        C428   1.286       .  A
O426        H436   0.990       .  S
O427        H440   0.990   1_554  S
C428        C482   1.433       .  S
H435        O580   0.990       .  S
H439        O581   0.990       .  S
H448        O581   0.989       .  S
C451        C452   1.204       .  T
C453        C454   1.206       .  T
C455        C456   1.202       .  T
C457        C458   1.205       .  T
C459        C460   1.206       .  T
C461        C462   1.203       .  T
C463        C464   1.205       .  T
C465        C466   1.202       .  T
C467        C468   1.207       .  T
C469        C470   1.208       .  T
C471        C472   1.211       .  T
C473        C474   1.211       .  T
C475        C476   1.209       .  T
C477        C478   1.210       .  T
C479        C480   1.211       .  T
C481        C482   1.205       .  T
C483        C484   1.207       .  T
C485        C486   1.202       .  T
C487        N488   1.361       .  A
C487        N492   1.355       .  A
C487        C643   1.434       .  S
N488        C489   1.360       .  A
C489        N490   1.356       .  A
C489        C645   1.437       .  S
N490        C491   1.355       .  A
C491        N492   1.354       .  A
C491        C647   1.428       .  S
C493        N494   1.358       .  A
C493        N498   1.358       .  A
C493        C638   1.441       .  S
N494        C495   1.358       .  A
C495        N496   1.361       .  A
C495        C640   1.443       .  S
N496        C497   1.361       .  A
C497        N498   1.359       .  A
C497        C641   1.444       .  S
C499        N500   1.357       .  A
C499        N504   1.357       .  A
C499        C632   1.439       .  S
N500        C501   1.358       .  A
C501        N502   1.362       .  A
C501        C636   1.444       .  S
N502        C503   1.362       .  A
C503        N504   1.358       .  A
C503        C634   1.444       .  S
C505        C646   1.446       .  S
C505        C506   1.410       .  A
C505        C510   1.405       .  A
C506        C642   1.452       .  S
C506        C507   1.403       .  A
C507        C508   1.405       .  A
C507        H512   1.085       .  S
C508        C629   1.445       .  S
C508        C509   1.411       .  A
C509        C633   1.452       .  S
C509        C510   1.403       .  A
C510        H511   1.085       .  S
C513        N514   1.360       .  A
C513        N518   1.356       .  A
C513        C626   1.434       .  S
N514        C515   1.359       .  A
C515        N516   1.355       .  A
C515        C630   1.437       .  S
N516        C517   1.355       .  A
C517        N518   1.355       .  A
C517        C628   1.429       .  S
C519        N520   1.359       .  A
C519        N524   1.355       .  A
C519        C619   1.434       .  S
N520        C521   1.358       .  A
C521        N522   1.356       .  A
C521        C621   1.435       .  S
N522        C523   1.355       .  A
C523        N524   1.355       .  A
C523        C623   1.430       .  S
C525        N526   1.355       .  A
C525        N530   1.360       .  A
C525        C613   1.433       .  S
N526        C527   1.355       .  A
C527        N528   1.355       .  A
C527        C618   1.429       .  S
N528        C529   1.356       .  A
C529        N530   1.359       .  A
C529        C615   1.435       .  S
C531        C648   1.437       .  S
C531       C1180   1.406       .  A
C531        C536   1.399       .  A
C532        C624   1.439       .  S
C532       C1179   1.406   1_455  A
C532        C533   1.398       .  A
C533        C534   1.398       .  A
C533        H538   1.085       .  S
C534        C627   1.438       .  S
C534       C1183   1.406   1_455  A
C535        C617   1.439       .  S
C535       C1182   1.406       .  A
C535        C536   1.398       .  A
C536        H537   1.085       .  S
C539        C540   1.410       .  A
C540        C616   1.444       .  S
C540        C541   1.405       .  A
C541        C542   1.403       .  A
C541        H546   1.085       .  S
C542        C635   1.452       .  S
C543        C622   1.443   1_545  S
C543        C544   1.404   1_545  A
C544        H545   1.085       .  S
Zr547       O548   2.442       .  S
Zr547      O1197   2.445   1_455  S
Zr547       O550   2.428       .  S
Zr547      O1203   2.377   1_455  S
Zr547       O880   2.381   1_455  S
Zr547       O557   2.407       .  S
Zr547       O558   2.403       .  S
O548        H604   0.991       .  S
O548        H612   0.990       .  S
O549      Zr1195   2.445       .  S
O550        C571   1.280       .  A
O551      Zr1209   2.439   1_455  S
O551        C570   1.284       .  A
O552      Zr1208   2.434   1_455  S
O552        C571   1.283       .  A
O553        C570   1.280       .  A
O554       Zr562   2.420       .  S
O554        C569   1.279       .  A
O555      Zr1195   2.377       .  S
O555       Zr560   2.400       .  S
O556       Zr871   2.381   1_565  S
O556       Zr561   2.398       .  S
O556       Zr562   2.376       .  S
O556        H591   0.966       .  S
O557      Zr1208   2.400   1_455  S
O557       Zr577   2.394       .  S
O557        H594   0.966       .  S
O558       Zr885   2.393   1_455  S
O558       Zr577   2.395       .  S
Zr559      O1226   2.440       .  S
Zr559       O574   2.418       .  S
Zr559      O1053   2.376       .  S
Zr559      O1216   2.381       .  S
Zr560      O1227   2.436       .  S
Zr560       O572   2.434       .  S
Zr560      O1200   2.434       .  S
Zr560      O1205   2.400       .  S
Zr560       O566   2.397       .  S
Zr560      O1215   2.388       .  S
Zr561      O1211   2.436       .  S
Zr561       O585   2.438       .  S
Zr561      O1199   2.439       .  S
Zr561       O882   2.393   1_565  S
Zr561       O565   2.391       .  S
Zr561       O730   2.390   1_565  S
Zr562       O588   2.436       .  S
Zr562       O589   2.435       .  S
Zr562       O565   2.393       .  S
O563      Zr1209   2.436   1_455  S
O563        H600   0.990       .  S
O564        H609   0.990       .  S
O566        H592   0.966       .  S
O567      Zr1045   2.376   1_455  S
O567      Zr1208   2.388   1_455  S
O567       Zr577   2.375       .  S
O568      Zr1207   2.381   1_455  S
O568       Zr723   2.390   1_456  S
C569        C637   1.440       .  S
C570        C620   1.433       .  S
C571        C625   1.433       .  S
O572        H608   0.990       .  S
O573        C575   1.285       .  A
O574        C575   1.280       .  A
C575        C614   1.431       .  S
O576       Zr577   2.439       .  S
O576        H605   0.990       .  S
Zr577       O580   2.437       .  S
Zr577       O581   2.439       .  S
O578      Zr1207   2.440   1_455  S
O578        C583   1.284       .  A
O579      Zr1208   2.436   1_455  S
O579        H596   0.990       .  S
O579        H611   0.990       .  S
O582        C583   1.281       .  A
C583        C631   1.439       .  S
O584        H603   0.990       .  S
O584        H607   0.990       .  S
O585        H599   0.990       .  S
O585        H606   0.990       .  S
O586        C590   1.279       .  A
O587        C590   1.286       .  A
O588        H598   0.990       .  S
O589        H602   0.990       .  S
C590        C644   1.433       .  S
C613        C614   1.204       .  T
C615        C616   1.206       .  T
C617        C618   1.202       .  T
C619        C620   1.205       .  T
C621        C622   1.206       .  T
C623        C624   1.203       .  T
C625        C626   1.205       .  T
C627        C628   1.202       .  T
C629        C630   1.207       .  T
C631        C632   1.208       .  T
C633        C634   1.211       .  T
C635        C636   1.211       .  T
C637        C638   1.209       .  T
C639        C640   1.210       .  T
C641        C642   1.211       .  T
C643        C644   1.205       .  T
C645        C646   1.207       .  T
C647        C648   1.202       .  T
C649        N650   1.361       .  A
C649        N654   1.355       .  A
C649        C805   1.434       .  S
N650        C651   1.359       .  A
C651        N652   1.356       .  A
C651        C807   1.437       .  S
N652        C653   1.355       .  A
C653        N654   1.354       .  A
C653        C809   1.428       .  S
C655        N656   1.358       .  A
C655        N660   1.358       .  A
C655        C800   1.441       .  S
N656        C657   1.358       .  A
C657        N658   1.361       .  A
C657        C802   1.443       .  S
N658        C659   1.361       .  A
C659        N660   1.359       .  A
C659        C803   1.444       .  S
C661        N662   1.357       .  A
C661        N666   1.357       .  A
C661        C794   1.439       .  S
N662        C663   1.358       .  A
C663        N664   1.362       .  A
C663        C798   1.444       .  S
N664        C665   1.362       .  A
C665        N666   1.358       .  A
C665        C796   1.444       .  S
C667        C808   1.445       .  S
C667        C668   1.410       .  A
C667        C672   1.405       .  A
C668        C804   1.452       .  S
C668        C669   1.403       .  A
C669        C670   1.405       .  A
C669        H674   1.085       .  S
C670        C791   1.445       .  S
C670        C671   1.411       .  A
C671        C795   1.452       .  S
C671        C672   1.403       .  A
C672        H673   1.085       .  S
C675        N676   1.360       .  A
C675        N680   1.356       .  A
C675        C788   1.434       .  S
N676        C677   1.359       .  A
C677        N678   1.355       .  A
C677        C792   1.437       .  S
N678        C679   1.355       .  A
C679        N680   1.355       .  A
C679        C790   1.429       .  S
C681        N682   1.359       .  A
C681        N686   1.355       .  A
C681        C781   1.434       .  S
N682        C683   1.358       .  A
C683        N684   1.356       .  A
C683        C783   1.435       .  S
N684        C685   1.355       .  A
C685        N686   1.355       .  A
C685        C785   1.430       .  S
C687        N688   1.355       .  A
C687        N692   1.360       .  A
C687        C775   1.433       .  S
N688        C689   1.355       .  A
C689        N690   1.355       .  A
C689        C780   1.429       .  S
N690        C691   1.356       .  A
C691        N692   1.358       .  A
C691        C777   1.435       .  S
C693        C810   1.437       .  S
C693        C698   1.399       .  A
C694        C786   1.440       .  S
C694        C695   1.398       .  A
C695        C696   1.398       .  A
C695        H700   1.085       .  S
C696        C789   1.438       .  S
C697        C779   1.439       .  S
C697        C698   1.398       .  A
C698        H699   1.085       .  S
C701       C1125   1.451   1_545  S
C701        C702   1.410       .  A
C701       C1030   1.401   1_545  A
C702        C778   1.444       .  S
C702        C703   1.405       .  A
C703        C704   1.403       .  A
C703        H708   1.085       .  S
C704        C797   1.452       .  S
C704       C1029   1.410       .  A
C705        C784   1.443       .  S
C705       C1028   1.410       .  A
C705        C706   1.404       .  A
C706       C1025   1.401       .  A
C706        H707   1.085       .  S
Zr709       O710   2.442       .  S
Zr709       O712   2.429       .  S
Zr709      O1039   2.417   1_545  S
Zr709       O719   2.407       .  S
Zr709       O720   2.404       .  S
O710        H766   0.991       .  S
O710        H774   0.990       .  S
O711       C1055   1.284       .  A
O712        C733   1.281       .  A
O713        C732   1.284       .  A
O714        C733   1.283       .  A
O715      Zr1033   2.417       .  S
O715        C732   1.280       .  A
O716       Zr724   2.420       .  S
O716        C731   1.279       .  A
O717       Zr722   2.401       .  S
O717      Zr1048   2.379   1_545  S
O718       Zr723   2.398       .  S
O718       Zr724   2.375       .  S
O718        H753   0.966       .  S
O719       Zr739   2.394       .  S
O719        H756   0.966       .  S
O720       Zr739   2.395       .  S
Zr721      O1070   2.450   1_545  S
Zr721      O1072   2.414   1_545  S
Zr721       O736   2.418       .  S
Zr721      O1213   2.400   1_545  S
Zr721       O890   2.403       .  S
Zr722       O734   2.434       .  S
Zr722       O897   2.439   1_554  S
Zr722       O728   2.397       .  S
Zr723       O747   2.438       .  S
Zr723       O911   2.444   1_554  S
Zr723       O727   2.391       .  S
Zr724       O750   2.436       .  S
Zr724       O751   2.435       .  S
Zr724      O1050   2.437       .  S
Zr724      O1041   2.379       .  S
Zr724       O727   2.393       .  S
Zr724      O1052   2.393       .  S
O725        H762   0.990       .  S
O726      Zr1048   2.437       .  S
O726       H1081   0.990       .  S
O726        H771   0.990   1_565  S
O727      Zr1207   2.400   1_554  S
O728       Zr883   2.403   1_554  S
O728      Zr1048   2.393   1_545  S
O728        H754   0.966   1_554  S
O729       Zr739   2.375   1_556  S
O730       Zr901   2.379       .  S
O730       H1079   0.966   1_545  S
C731        C799   1.440       .  S
C731       O1035   1.284       .  A
C732        C782   1.432       .  S
C733        C787   1.433       .  S
O734        H770   0.990       .  S
O735       Zr884   2.439       .  S
O735        C737   1.285       .  A
O736        C737   1.280       .  A
C737        C776   1.431       .  S
O738       Zr739   2.439       .  S
O738        H767   0.990       .  S
Zr739       O742   2.437       .  S
Zr739       O743   2.439       .  S
Zr739       O906   2.424   1_554  S
Zr739       O892   2.379   1_554  S
O740        C745   1.284       .  A
O741        H758   0.990       .  S
O741        H773   0.990       .  S
O742        H921   0.990   1_554  S
O743        H925   0.990   1_554  S
O743        H934   0.989   1_554  S
O744       Zr901   2.424       .  S
O744        C745   1.281       .  A
C745        C793   1.438       .  S
O746      Zr1045   2.450       .  S
O746        H765   0.990       .  S
O746        H769   0.990       .  S
O747        H761   0.990       .  S
O747        H768   0.990       .  S
O748      Zr1045   2.414       .  S
O748        C752   1.279       .  A
O749       Zr885   2.443       .  S
O749        C752   1.286       .  A
O750        H760   0.990       .  S
O751        H764   0.990   1_554  S
C752        C806   1.433       .  S
H755       O1054   0.966       .  S
H757       O1050   0.990       .  S
H759        O904   0.990       .  S
H763        O905   0.990       .  S
H772        O905   0.989       .  S
C775        C776   1.204       .  T
C777        C778   1.206       .  T
C779        C780   1.202       .  T
C781        C782   1.205       .  T
C783        C784   1.206       .  T
C785        C786   1.203       .  T
C787        C788   1.205       .  T
C789        C790   1.202       .  T
C791        C792   1.207       .  T
C793        C794   1.208       .  T
C795        C796   1.211       .  T
C797        C798   1.211       .  T
C799        C800   1.209       .  T
C801       C1025   1.451       .  S
C801        C802   1.210       .  T
C803        C804   1.211       .  T
C805        C806   1.205       .  T
C807        C808   1.207       .  T
C809        C810   1.202       .  T
C811        N812   1.361       .  A
C811        N816   1.355       .  A
C811        C967   1.434       .  S
N812        C813   1.360       .  A
C813        N814   1.356       .  A
C813        C969   1.437       .  S
N814        C815   1.355       .  A
C815        N816   1.354       .  A
C815        C971   1.428       .  S
C817        N818   1.358       .  A
C817        N822   1.358       .  A
C817        C962   1.441       .  S
N818        C819   1.358       .  A
C819        N820   1.361       .  A
C819        C964   1.443       .  S
N820        C821   1.361       .  A
C821        N822   1.359       .  A
C821        C965   1.444       .  S
C823        N824   1.357       .  A
C823        N828   1.357       .  A
C823        C956   1.439       .  S
N824        C825   1.358       .  A
C825        N826   1.362       .  A
C825        C960   1.444       .  S
N826        C827   1.362       .  A
C827        N828   1.358       .  A
C827        C958   1.444       .  S
C829        C970   1.446       .  S
C829        C830   1.410       .  A
C829        C834   1.405       .  A
C830        C966   1.452       .  S
C830        C831   1.403       .  A
C831        C832   1.405       .  A
C831        H836   1.085       .  S
C832        C953   1.445       .  S
C832        C833   1.411       .  A
C833        C957   1.452       .  S
C833        C834   1.403       .  A
C834        H835   1.085       .  S
C837        N838   1.360       .  A
C837        N842   1.356       .  A
C837        C950   1.434       .  S
N838        C839   1.359       .  A
C839        N840   1.355       .  A
C839        C954   1.437       .  S
N840        C841   1.355       .  A
C841        N842   1.355       .  A
C841        C952   1.429       .  S
C843        N844   1.359       .  A
C843        N848   1.355       .  A
C843        C943   1.434       .  S
N844        C845   1.358       .  A
C845        N846   1.356       .  A
C845        C945   1.435       .  S
N846        C847   1.355       .  A
C847        N848   1.355       .  A
C847        C947   1.430       .  S
C849        N850   1.355       .  A
C849        N854   1.360       .  A
C849        C937   1.433       .  S
N850        C851   1.355       .  A
C851        N852   1.355       .  A
C851        C942   1.429       .  S
N852        C853   1.356       .  A
C853        N854   1.359       .  A
C853        C939   1.435       .  S
C855        C972   1.437       .  S
C855        C860   1.399       .  A
C856        C948   1.439       .  S
C856        C857   1.398       .  A
C857        C858   1.398       .  A
C857        H862   1.085       .  S
C858        C951   1.438       .  S
C859        C941   1.439       .  S
C859        C860   1.398       .  A
C860        H861   1.085       .  S
C863       C1287   1.451   1_545  S
C863        C864   1.410       .  A
C863       C1192   1.401   1_545  A
C864        C940   1.444       .  S
C864        C865   1.405       .  A
C865        C866   1.403       .  A
C865        H870   1.085       .  S
C866        C959   1.452       .  S
C866       C1191   1.410       .  A
C867        C946   1.443       .  S
C867       C1190   1.410       .  A
C867        C868   1.404       .  A
C868       C1187   1.401       .  A
C868        H869   1.085       .  S
Zr871       O872   2.442       .  S
Zr871       O874   2.428       .  S
Zr871      O1201   2.416   1_545  S
Zr871       O881   2.407       .  S
Zr871       O882   2.403       .  S
O872        H928   0.991       .  S
O872        H936   0.990       .  S
O873       C1217   1.284       .  A
O874        C895   1.280       .  A
O875        C894   1.284       .  A
O876        C895   1.283       .  A
O877      Zr1195   2.416       .  S
O877        C894   1.280       .  A
O878       Zr886   2.420       .  S
O878        C893   1.279       .  A
O879       Zr884   2.400       .  S
O879      Zr1210   2.379   1_545  S
O880       Zr885   2.398       .  S
O880       Zr886   2.376       .  S
O880        H915   0.966       .  S
O881       Zr901   2.394       .  S
O881        H918   0.966       .  S
O882       Zr901   2.395       .  S
Zr883      O1232   2.450   1_545  S
Zr883      O1234   2.414   1_545  S
Zr883       O898   2.418       .  S
Zr883      O1051   2.400   1_546  S
Zr884       O896   2.434       .  S
Zr884       O890   2.397       .  S
Zr885       O909   2.438       .  S
Zr885       O889   2.391       .  S
Zr886       O912   2.436       .  S
Zr886       O913   2.435       .  S
Zr886      O1212   2.437       .  S
Zr886      O1203   2.379       .  S
Zr886       O889   2.393       .  S
Zr886      O1214   2.393       .  S
O887        H924   0.990       .  S
O888      Zr1210   2.437       .  S
O888       H1243   0.990       .  S
O888        H933   0.990   1_565  S
O889      Zr1045   2.400       .  S
O890      Zr1210   2.393   1_545  S
O890        H916   0.966       .  S
O891       Zr901   2.375       .  S
O892       H1241   0.966   1_545  S
C893        C961   1.440       .  S
C893       O1197   1.284       .  A
C894        C944   1.433       .  S
C895        C949   1.433       .  S
O896        H932   0.990       .  S
O897        C899   1.285       .  A
O898        C899   1.280       .  A
C899        C938   1.431       .  S
O900       Zr901   2.439       .  S
O900        H929   0.990       .  S
Zr901       O904   2.437       .  S
Zr901       O905   2.439       .  S
O902        C907   1.284       .  A
O903        H920   0.990       .  S
O903        H935   0.990       .  S
O906        C907   1.281       .  A
C907        C955   1.439       .  S
O908      Zr1207   2.450       .  S
O908        H927   0.990       .  S
O908        H931   0.990       .  S
O909        H923   0.990       .  S
O909        H930   0.990       .  S
O910      Zr1207   2.414       .  S
O910        C914   1.279       .  A
O911        C914   1.286       .  A
O912        H922   0.990       .  S
O913        H926   0.990       .  S
C914        C968   1.433       .  S
H917       O1216   0.966       .  S
H919       O1212   0.990       .  S
C937        C938   1.204       .  T
C939        C940   1.206       .  T
C941        C942   1.202       .  T
C943        C944   1.205       .  T
C945        C946   1.206       .  T
C947        C948   1.203       .  T
C949        C950   1.205       .  T
C951        C952   1.202       .  T
C953        C954   1.207       .  T
C955        C956   1.208       .  T
C957        C958   1.211       .  T
C959        C960   1.211       .  T
C961        C962   1.209       .  T
C963       C1187   1.451       .  S
C963        C964   1.210       .  T
C965        C966   1.211       .  T
C967        C968   1.205       .  T
C969        C970   1.207       .  T
C971        C972   1.202       .  T
C973        N974   1.361       .  A
C973        N978   1.355       .  A
C973       C1129   1.434       .  S
N974        C975   1.359       .  A
C975        N976   1.356       .  A
C975       C1131   1.437       .  S
N976        C977   1.355       .  A
C977        N978   1.354       .  A
C977       C1133   1.428       .  S
C979        N980   1.358       .  A
C979        N984   1.358       .  A
C979       C1124   1.441       .  S
N980        C981   1.358       .  A
C981        N982   1.361       .  A
C981       C1126   1.443       .  S
N982        C983   1.361       .  A
C983        N984   1.359       .  A
C983       C1127   1.444       .  S
C985        N986   1.357       .  A
C985        N990   1.357       .  A
C985       C1118   1.439       .  S
N986        C987   1.358       .  A
C987        N988   1.362       .  A
C987       C1122   1.444       .  S
N988        C989   1.362       .  A
C989        N990   1.358       .  A
C989       C1120   1.444       .  S
C991       C1132   1.445       .  S
C991        C992   1.410       .  A
C991        C996   1.405       .  A
C992       C1128   1.452       .  S
C992        C993   1.403       .  A
C993        C994   1.405       .  A
C993        H998   1.085       .  S
C994       C1115   1.445       .  S
C994        C995   1.411       .  A
C995       C1119   1.452       .  S
C995        C996   1.403       .  A
C996        H997   1.085       .  S
C999       N1000   1.360       .  A
C999       N1004   1.356       .  A
C999       C1112   1.434       .  S
N1000      C1001   1.359       .  A
C1001      N1002   1.355       .  A
C1001      C1116   1.437       .  S
N1002      C1003   1.355       .  A
C1003      N1004   1.355       .  A
C1003      C1114   1.429       .  S
C1005      N1006   1.359       .  A
C1005      N1010   1.355       .  A
C1005      C1105   1.434       .  S
N1006      C1007   1.358       .  A
C1007      N1008   1.356       .  A
C1007      C1107   1.435       .  S
N1008      C1009   1.355       .  A
C1009      N1010   1.355       .  A
C1009      C1109   1.430       .  S
C1011      N1012   1.355       .  A
C1011      N1016   1.360       .  A
C1011      C1099   1.433       .  S
N1012      C1013   1.355       .  A
C1013      N1014   1.355       .  A
C1013      C1104   1.429       .  S
N1014      C1015   1.356       .  A
C1015      N1016   1.358       .  A
C1015      C1101   1.435       .  S
C1017      C1134   1.437       .  S
C1017      C1022   1.399       .  A
C1018      C1110   1.440       .  S
C1018      C1019   1.398       .  A
C1019      C1020   1.398       .  A
C1019      H1024   1.085       .  S
C1020      C1113   1.438       .  S
C1021      C1103   1.439       .  S
C1021      C1022   1.398       .  A
C1022      H1023   1.085       .  S
C1025      C1026   1.410       .  A
C1026      C1102   1.444       .  S
C1026      C1027   1.405       .  A
C1027      C1028   1.403       .  A
C1027      H1032   1.085       .  S
C1028      C1121   1.452       .  S
C1029      C1108   1.443   1_545  S
C1029      C1030   1.404   1_545  A
C1030      H1031   1.085       .  S
Zr1033     O1034   2.442       .  S
Zr1033     O1036   2.429       .  S
Zr1033     O1043   2.407       .  S
Zr1033     O1044   2.404       .  S
O1034      H1090   0.991       .  S
O1034      H1098   0.990       .  S
O1036      C1057   1.281       .  A
O1037      C1056   1.284       .  A
O1038      C1057   1.283       .  A
O1039      C1056   1.280       .  A
O1040     Zr1048   2.420       .  S
O1040      C1055   1.279       .  A
O1041     Zr1046   2.401       .  S
O1042     Zr1047   2.398       .  S
O1042     Zr1048   2.375       .  S
O1042      H1077   0.966       .  S
O1043     Zr1063   2.394       .  S
O1043      H1080   0.966       .  S
O1044     Zr1063   2.395       .  S
Zr1045     O1060   2.418       .  S
Zr1045     O1214   2.403       .  S
Zr1046     O1058   2.434       .  S
Zr1046     O1221   2.439   1_554  S
Zr1046     O1052   2.397       .  S
Zr1047     O1071   2.438       .  S
Zr1047     O1235   2.444   1_554  S
Zr1047     O1051   2.391       .  S
Zr1048     O1074   2.436       .  S
Zr1048     O1075   2.435       .  S
Zr1048     O1051   2.393       .  S
O1049      H1086   0.990       .  S
O1050      H1095   0.990       .  S
O1052     Zr1207   2.403   1_554  S
O1052      H1078   0.966   1_554  S
O1053     Zr1063   2.375   1_556  S
O1054     Zr1225   2.379       .  S
C1055      C1123   1.440       .  S
C1056      C1106   1.432       .  S
C1057      C1111   1.433       .  S
O1058      H1094   0.990       .  S
O1059     Zr1208   2.439       .  S
O1059      C1061   1.285       .  A
O1060      C1061   1.280       .  A
C1061      C1100   1.431       .  S
O1062     Zr1063   2.439       .  S
O1062      H1091   0.990       .  S
Zr1063     O1066   2.437       .  S
Zr1063     O1067   2.439       .  S
Zr1063     O1230   2.424   1_554  S
Zr1063     O1216   2.379   1_554  S
O1064      C1069   1.284       .  A
O1065      H1082   0.990       .  S
O1065      H1097   0.990       .  S
O1066      H1245   0.990   1_554  S
O1067      H1249   0.990   1_554  S
O1067      H1258   0.989   1_554  S
O1068     Zr1225   2.424       .  S
O1068      C1069   1.281       .  A
C1069      C1117   1.438       .  S
O1070      H1089   0.990       .  S
O1070      H1093   0.990       .  S
O1071      H1085   0.990       .  S
O1071      H1092   0.990       .  S
O1072      C1076   1.279       .  A
O1073     Zr1209   2.443       .  S
O1073      C1076   1.286       .  A
O1074      H1084   0.990       .  S
O1075      H1088   0.990   1_554  S
C1076      C1130   1.433       .  S
H1083      O1228   0.990       .  S
H1087      O1229   0.990       .  S
H1096      O1229   0.989       .  S
C1099      C1100   1.204       .  T
C1101      C1102   1.206       .  T
C1103      C1104   1.202       .  T
C1105      C1106   1.205       .  T
C1107      C1108   1.206       .  T
C1109      C1110   1.203       .  T
C1111      C1112   1.205       .  T
C1113      C1114   1.202       .  T
C1115      C1116   1.207       .  T
C1117      C1118   1.208       .  T
C1119      C1120   1.211       .  T
C1121      C1122   1.211       .  T
C1123      C1124   1.209       .  T
C1125      C1126   1.210       .  T
C1127      C1128   1.211       .  T
C1129      C1130   1.205       .  T
C1131      C1132   1.207       .  T
C1133      C1134   1.202       .  T
C1135      N1136   1.361       .  A
C1135      N1140   1.355       .  A
C1135      C1291   1.434       .  S
N1136      C1137   1.360       .  A
C1137      N1138   1.356       .  A
C1137      C1293   1.437       .  S
N1138      C1139   1.355       .  A
C1139      N1140   1.354       .  A
C1139      C1295   1.428       .  S
C1141      N1142   1.358       .  A
C1141      N1146   1.358       .  A
C1141      C1286   1.441       .  S
N1142      C1143   1.358       .  A
C1143      N1144   1.361       .  A
C1143      C1288   1.443       .  S
N1144      C1145   1.361       .  A
C1145      N1146   1.359       .  A
C1145      C1289   1.444       .  S
C1147      N1148   1.357       .  A
C1147      N1152   1.357       .  A
C1147      C1280   1.439       .  S
N1148      C1149   1.358       .  A
C1149      N1150   1.362       .  A
C1149      C1284   1.444       .  S
N1150      C1151   1.362       .  A
C1151      N1152   1.358       .  A
C1151      C1282   1.444       .  S
C1153      C1294   1.446       .  S
C1153      C1154   1.410       .  A
C1153      C1158   1.405       .  A
C1154      C1290   1.452       .  S
C1154      C1155   1.403       .  A
C1155      C1156   1.405       .  A
C1155      H1160   1.085       .  S
C1156      C1277   1.445       .  S
C1156      C1157   1.411       .  A
C1157      C1281   1.452       .  S
C1157      C1158   1.403       .  A
C1158      H1159   1.085       .  S
C1161      N1162   1.360       .  A
C1161      N1166   1.356       .  A
C1161      C1274   1.434       .  S
N1162      C1163   1.359       .  A
C1163      N1164   1.355       .  A
C1163      C1278   1.437       .  S
N1164      C1165   1.355       .  A
C1165      N1166   1.355       .  A
C1165      C1276   1.429       .  S
C1167      N1168   1.359       .  A
C1167      N1172   1.355       .  A
C1167      C1267   1.434       .  S
N1168      C1169   1.358       .  A
C1169      N1170   1.356       .  A
C1169      C1269   1.435       .  S
N1170      C1171   1.355       .  A
C1171      N1172   1.355       .  A
C1171      C1271   1.430       .  S
C1173      N1174   1.355       .  A
C1173      N1178   1.360       .  A
C1173      C1261   1.433       .  S
N1174      C1175   1.355       .  A
C1175      N1176   1.355       .  A
C1175      C1266   1.429       .  S
N1176      C1177   1.356       .  A
C1177      N1178   1.359       .  A
C1177      C1263   1.435       .  S
C1179      C1296   1.437       .  S
C1179      C1184   1.399       .  A
C1180      C1272   1.439       .  S
C1180      C1181   1.398       .  A
C1181      C1182   1.398       .  A
C1181      H1186   1.085       .  S
C1182      C1275   1.438       .  S
C1183      C1265   1.439       .  S
C1183      C1184   1.398       .  A
C1184      H1185   1.085       .  S
C1187      C1188   1.410       .  A
C1188      C1264   1.444       .  S
C1188      C1189   1.405       .  A
C1189      C1190   1.403       .  A
C1189      H1194   1.085       .  S
C1190      C1283   1.452       .  S
C1191      C1270   1.443   1_545  S
C1191      C1192   1.404   1_545  A
C1192      H1193   1.085       .  S
Zr1195     O1196   2.442       .  S
Zr1195     O1198   2.428       .  S
Zr1195     O1205   2.407       .  S
Zr1195     O1206   2.403       .  S
O1196      H1252   0.991       .  S
O1196      H1260   0.990       .  S
O1198      C1219   1.280       .  A
O1199      C1218   1.284       .  A
O1200      C1219   1.283       .  A
O1201      C1218   1.280       .  A
O1202     Zr1210   2.420       .  S
O1202      C1217   1.279       .  A
O1203     Zr1208   2.400       .  S
O1204     Zr1209   2.398       .  S
O1204     Zr1210   2.376       .  S
O1204      H1239   0.966       .  S
O1205     Zr1225   2.394       .  S
O1205      H1242   0.966       .  S
O1206     Zr1225   2.395       .  S
Zr1207     O1222   2.418       .  S
Zr1208     O1220   2.434       .  S
Zr1208     O1214   2.397       .  S
Zr1209     O1233   2.438       .  S
Zr1209     O1213   2.391       .  S
Zr1210     O1236   2.436       .  S
Zr1210     O1237   2.435       .  S
Zr1210     O1213   2.393       .  S
O1211      H1248   0.990       .  S
O1212      H1257   0.990       .  S
O1214      H1240   0.966       .  S
O1215     Zr1225   2.375       .  S
C1217      C1285   1.440       .  S
C1218      C1268   1.433       .  S
C1219      C1273   1.433       .  S
O1220      H1256   0.990       .  S
O1221      C1223   1.285       .  A
O1222      C1223   1.280       .  A
C1223      C1262   1.431       .  S
O1224     Zr1225   2.439       .  S
O1224      H1253   0.990       .  S
Zr1225     O1228   2.437       .  S
Zr1225     O1229   2.439       .  S
O1226      C1231   1.284       .  A
O1227      H1244   0.990       .  S
O1227      H1259   0.990       .  S
O1230      C1231   1.281       .  A
C1231      C1279   1.439       .  S
O1232      H1251   0.990       .  S
O1232      H1255   0.990       .  S
O1233      H1247   0.990       .  S
O1233      H1254   0.990       .  S
O1234      C1238   1.279       .  A
O1235      C1238   1.286       .  A
O1236      H1246   0.990       .  S
O1237      H1250   0.990       .  S
C1238      C1292   1.433       .  S
C1261      C1262   1.204       .  T
C1263      C1264   1.206       .  T
C1265      C1266   1.202       .  T
C1267      C1268   1.205       .  T
C1269      C1270   1.206       .  T
C1271      C1272   1.203       .  T
C1273      C1274   1.205       .  T
C1275      C1276   1.202       .  T
C1277      C1278   1.207       .  T
C1279      C1280   1.208       .  T
C1281      C1282   1.211       .  T
C1283      C1284   1.211       .  T
C1285      C1286   1.209       .  T
C1287      C1288   1.210       .  T
C1289      C1290   1.211       .  T
C1291      C1292   1.205       .  T
C1293      C1294   1.207       .  T
C1295      C1296   1.202       .  T
