geometry optimzed in LAMMPS
_audit_creation_date              2020-11-30 
_audit_creation_method            'lammps2cif' 
_symmetry_space_group_name_H-M    'P1' 
_symmetry_Int_Tables_number       1 
_symmetry_cell_setting            triclinic 
loop_ 
_symmetry_equiv_pos_as_xyz 
  x,y,z 
_cell_length_a                    44.36888761 
_cell_length_b                    44.29817445174097 
_cell_length_c                    63.08333497269848 
_cell_angle_alpha                 89.81713419902748 
_cell_angle_beta                  90.16267025894244 
_cell_angle_gamma                 119.46507937496122 
loop_ 
_atom_site_label 
_atom_site_type_symbol 
_atom_site_fract_x 
_atom_site_fract_y 
_atom_site_fract_z 
_atom_site_charge 
C1          C  0.99973294  0.99725146  0.77070590     0.45300
H2          H  0.99910588  0.99706834  0.78831106    -0.03700
C3          C  0.00200293  0.99835685  0.72941021     0.45400
H4          H  0.00292773  0.99847829  0.71181138    -0.03700
C5          C  0.96861388  0.96608347  0.76035884    -0.17400
C6          C  0.00018914  0.02925964  0.76090113    -0.17200
C7          C  0.03193773  0.99759923  0.76164096    -0.17500
C8          C  0.97019725  0.96643429  0.73855426    -0.17500
C9          C  0.00064390  0.02954605  0.73905224    -0.17100
C10         C  0.03313004  0.99806564  0.73992251    -0.17400
O11         O  0.64982015  0.26343891  0.02483293    -0.78600
C12         C  0.59720821  0.32460549  0.03384877     0.82400
O13         O  0.62504312  0.30143093  0.95634212    -0.79700
O14         O  0.66713327  0.40775799  0.98638775    -0.81200
O15         O  0.74255084  0.38649172  0.02722503    -0.81000
O16         O  0.70593582  0.30020336  0.02972163    -0.79700
Zn17       Zn  0.63231686  0.29155764  0.00873364     1.55700
O18         O  0.70417751  0.40476998  0.03119802    -0.81000
Cd19       Cd  0.71500115  0.34107011  0.01002784     1.59700
Cd20       Cd  0.67146328  0.33865955  0.96855403     1.59600
O21         O  0.74327596  0.33760028  0.98493991    -0.81000
O22         O  0.67020583  0.33590728  0.99989287    -1.91500
Cd23       Cd  0.66409242  0.37464874  0.01080425     1.59900
O24         O  0.70956333  0.32968553  0.95688486    -0.81000
O25         O  0.61806636  0.35540609  0.02758966    -0.79700
C26         C  0.60114516  0.27341359  0.96430602     0.82900
C27         C  0.67907842  0.27090410  0.03294268     0.82500
O28         O  0.60103327  0.29902021  0.02840285    -0.78600
C29         C  0.73355646  0.40735548  0.03516270     0.83400
O30         O  0.60204360  0.26532413  0.98365297    -0.78700
C31         C  0.73636434  0.33107423  0.96527379     0.83500
C32         C  0.67594971  0.40993412  0.96694427     0.83800
O33         O  0.68031233  0.38652502  0.95812159    -0.81100
C34         C  0.71636560  0.72445619  0.85867967     0.80100
N35         N  0.68655517  0.72533834  0.86227552    -0.78200
C36         C  0.65921860  0.69824370  0.87186827     0.82500
N37         N  0.66207453  0.67042277  0.87803978    -0.78200
C38         C  0.69161028  0.66914217  0.87478546     0.82600
N39         N  0.71873103  0.69628007  0.86504747    -0.79900
O40         O  0.29947157  0.69965604  0.03294130    -0.78600
C41         C  0.40551352  0.72560496  0.03495017     0.82400
O42         O  0.32043612  0.70736485  0.96048213    -0.79700
O43         O  0.40071520  0.66313028  0.98248255    -0.81200
O44         O  0.29762996  0.59494966  0.03031146    -0.81000
O45         O  0.26005648  0.64409051  0.02883103    -0.79700
Zn46       Zn  0.33804225  0.70902402  0.01265236     1.55700
O47         O  0.35314499  0.61127144  0.02458162    -0.81000
Cd48       Cd  0.28755054  0.62656167  0.01113250     1.59700
Cd49       Cd  0.32934471  0.66770421  0.96949867     1.59600
O50         O  0.25843076  0.59528476  0.98622693    -0.81000
O51         O  0.33167180  0.66603745  0.00085467    -1.91500
Cd52       Cd  0.37084378  0.65842985  0.00891304     1.59900
O53         O  0.29012093  0.62152740  0.95769216    -0.81000
O54         O  0.40350305  0.69699298  0.02947867    -0.79700
C55         C  0.32507176  0.73432545  0.97041936     0.82900
C56         C  0.26984804  0.67380980  0.03699621     0.82500
O57         O  0.38325086  0.73406922  0.02877181    -0.78600
C58         C  0.32384498  0.59081102  0.03296458     0.83400
O59         O  0.33441001  0.73925320  0.98982713    -0.78700
C60         C  0.26393216  0.59615762  0.96633265     0.83500
C61         C  0.40010705  0.67230257  0.96333419     0.83800
O62         O  0.37541041  0.67641075  0.95627288    -0.81100
C63         C  0.27949464  0.27415844  0.13921410     0.80100
N64         N  0.27867579  0.30360852  0.13396916    -0.78200
C65         C  0.30650749  0.33075602  0.12479522     0.82500
N66         N  0.33510041  0.32815722  0.12080589    -0.78200
C67         C  0.33639169  0.29902085  0.12567288     0.82600
N68         N  0.30842965  0.27190709  0.13485824    -0.79900
C69         C  0.28091786  0.00920903  0.86572339     0.80100
N70         N  0.31097340  0.03963595  0.86826190    -0.78200
C71         C  0.33887842  0.04005492  0.87747090     0.82500
N72         N  0.33637148  0.00988400  0.88434746    -0.78200
C73         C  0.30655700  0.97938806  0.88213698     0.82600
N74         N  0.27889518  0.97920549  0.87276121    -0.79900
C75         C  0.99987242  0.71792232  0.14287788     0.80100
N76         N  0.03063437  0.71936283  0.13861262    -0.78200
C77         C  0.03137960  0.69142500  0.13037611     0.82500
N78         N  0.00113841  0.66213365  0.12635424    -0.78200
C79         C  0.97028427  0.66028448  0.13031838     0.82600
N80         N  0.96978062  0.68832951  0.13854168    -0.79900
C81         C  0.00193541  0.27670728  0.86182833     0.80100
N82         N  0.97105546  0.27503050  0.86611244    -0.78200
C83         C  0.97008138  0.30283991  0.87434587     0.82500
N84         N  0.00018446  0.33223424  0.87835437    -0.78200
C85         C  0.03115094  0.33437141  0.87441253     0.82600
N86         N  0.03195824  0.30644901  0.86618494    -0.79900
C87         C  0.71394565  0.99569623  0.14272388     0.80100
N88         N  0.71486580  0.02617604  0.13795963    -0.78200
C89         C  0.68684694  0.02625138  0.12920868     0.82500
N90         N  0.65805274  0.99558563  0.12511765    -0.78200
C91         C  0.65667836  0.96499294  0.12959814     0.82600
N92         N  0.68476986  0.96520750  0.13839496    -0.79900
O93         O  0.69592843  0.29766319  0.46329457    -0.78600
C94         C  0.72527841  0.40496266  0.46000402     0.82400
O95         O  0.70024730  0.32146565  0.53554350    -0.79700
O96         O  0.65925012  0.40243061  0.51004906    -0.81200
O97         O  0.59197069  0.29868823  0.46302716    -0.81000
O98         O  0.63968100  0.25973223  0.46581357    -0.79700
Zn99       Zn  0.70526509  0.33695038  0.48296965     1.55700
O100        O  0.61111975  0.35530009  0.46680854    -0.81000
Cd101      Cd  0.62231495  0.28793381  0.48293578     1.59700
Cd102      Cd  0.66162640  0.33031535  0.52471890     1.59600
O103        O  0.59028394  0.25885295  0.50763946    -0.81000
O104        O  0.66199657  0.33196390  0.49335036    -1.91500
Cd105      Cd  0.65634689  0.37199120  0.48423349     1.59900
O106        O  0.61516084  0.29149522  0.53605226    -0.81000
O107        O  0.69691268  0.40398661  0.46474541    -0.79700
C108        C  0.72738517  0.32478840  0.52657107     0.82900
C109        C  0.66976805  0.26855331  0.45866535     0.82500
O110        O  0.73234923  0.38188529  0.46662405    -0.78600
C111        C  0.58985172  0.32578453  0.45897964     0.83400
O112        O  0.73355360  0.33293722  0.50701313    -0.78700
C113        C  0.59038203  0.26486919  0.52741490     0.83500
C114        C  0.66663236  0.40150589  0.52954027     0.83800
O115        O  0.66955667  0.37642387  0.53717813    -0.81100
C116        C  0.72840463  0.71968035  0.63720631     0.80100
N117        N  0.72941817  0.68990525  0.63349891    -0.78200
C118        C  0.70155786  0.66182094  0.62511170     0.82500
N119        N  0.67286140  0.66379688  0.62026022    -0.78200
C120        C  0.67142904  0.69324434  0.62353748     0.82600
N121        N  0.69934260  0.72125643  0.63203187    -0.79900
O122        O  0.26151865  0.64748862  0.47963616    -0.78600
C123        C  0.31986983  0.59210920  0.46934366     0.82400
O124        O  0.29388583  0.61660225  0.54762805    -0.79700
O125        O  0.40265658  0.65868229  0.51759214    -0.81200
O126        O  0.38483386  0.73717318  0.47768511    -0.81000
O127        O  0.29857591  0.70410682  0.47719228    -0.79700
Zn128      Zn  0.28807726  0.62777712  0.49496809     1.55700
O129        O  0.40138496  0.69750776  0.47362643    -0.81000
Cd130      Cd  0.33986109  0.71054028  0.49555516     1.59700
Cd131      Cd  0.33355523  0.66296993  0.53621725     1.59600
O132        O  0.33993065  0.73923474  0.52143588    -0.81000
O133        O  0.33236011  0.66425210  0.50477348    -1.91500
Cd134      Cd  0.37024444  0.65724129  0.49345288     1.59900
O135        O  0.32806564  0.70293249  0.54867940    -0.81000
O136        O  0.35061945  0.61199329  0.47594343    -0.79700
C137        C  0.26623516  0.59389979  0.53862141     0.82900
C138        C  0.26928168  0.67776306  0.47313237     0.82500
O139        O  0.29476727  0.59664164  0.47479739    -0.78600
C140        C  0.40507463  0.72737941  0.46977265     0.83400
O141        O  0.26021694  0.59650290  0.51911324    -0.78700
C142        C  0.33260081  0.73149053  0.54095142     0.83500
C143        C  0.40407330  0.66555945  0.53731772     0.83800
O144        O  0.38029452  0.66883460  0.54650639    -0.81100
C145        C  0.28736164  0.00097731  0.64662738     0.80100
N146        N  0.31441776  0.03117887  0.63934132    -0.78200
C147        C  0.34116479  0.03094928  0.62897663     0.82500
N148        N  0.34045954  0.00037476  0.62586176    -0.78200
C149        C  0.31369355  0.97011768  0.63279534     0.82600
N150        N  0.28712051  0.97054012  0.64313093    -0.79900
C151        C  0.99270149  0.27030390  0.63469567     0.80100
N152        N  0.02340135  0.29958710  0.63087279    -0.78200
C153        C  0.02401216  0.32766233  0.62167931     0.82500
N154        N  0.99377910  0.32614482  0.61618251    -0.78200
C155        C  0.96301461  0.29714662  0.61958436     0.82600
N156        N  0.96257987  0.26919820  0.62885539    -0.79900
C157        C  0.00106656  0.71914771  0.35845431     0.80100
N158        N  0.03138475  0.72059668  0.36416499    -0.78200
C159        C  0.03135597  0.69280041  0.37335235     0.82500
N160        N  0.00078474  0.66364696  0.37688568    -0.78200
C161        C  0.97033173  0.66175829  0.37151348     0.82600
N162        N  0.97057497  0.68968402  0.36234752    -0.79900
C163        C  0.27545699  0.28385167  0.35573251     0.80100
N164        N  0.30580938  0.28404750  0.35942190    -0.78200
C165        C  0.33323407  0.31226096  0.36807750     0.82500
N166        N  0.32996687  0.34020799  0.37313009    -0.78200
C167        C  0.29993397  0.34048420  0.36972747     0.82600
N168        N  0.27264105  0.31214519  0.36104835    -0.79900
C169        C  0.71766703  0.99392140  0.36162908     0.80100
N170        N  0.71851800  0.02457855  0.36551516    -0.78200
C171        C  0.69106640  0.02501043  0.37470441     0.82500
N172        N  0.66293343  0.99460087  0.38005857    -0.78200
C173        C  0.66161291  0.96386749  0.37644653     0.82600
N174        N  0.68912428  0.96363405  0.36722384    -0.79900
C175        C  0.99820700  0.99908988  0.22930479     0.45300
H176        H  0.99786934  0.99893652  0.21169185    -0.03700
C177        C  0.99890848  0.00000451  0.27061634     0.45400
H178        H  0.99959297  0.00030820  0.28822305    -0.03700
C179        C  0.02964145  0.03103482  0.23878610    -0.17400
C180        C  0.96645807  0.99903066  0.23918110    -0.17200
C181        C  0.99863140  0.96759903  0.23928450    -0.17500
C182        C  0.02984627  0.03155821  0.26050821    -0.17500
C183        C  0.96656276  0.99900626  0.26104456    -0.17100
C184        C  0.99950495  0.96842065  0.26110090    -0.17400
C185        C  0.74759346  0.99348475  0.35149939    -0.03500
C186        C  0.74611955  0.96183161  0.34647148    -0.09300
C187        C  0.77417414  0.96141369  0.33672655    -0.16900
C188        C  0.80411061  0.99255129  0.33190047     0.25200
C189        C  0.80594861  0.02416405  0.33692371    -0.18600
C190        C  0.77791111  0.02467123  0.34664777    -0.07500
C191        C  0.83257995  0.99206480  0.32132508    -0.13900
C192        C  0.85604503  0.99184769  0.31185530    -0.13700
C193        C  0.88370173  0.99221920  0.29977196     0.25100
C194        C  0.91817982  0.01448715  0.30545530    -0.19100
C195        C  0.94502419  0.01616850  0.29304941    -0.07500
C196        C  0.93777848  0.99598966  0.27463014    -0.03600
C197        C  0.90304285  0.97251940  0.26959319    -0.08900
C198        C  0.87619405  0.97092098  0.28196393    -0.16600
H199        H  0.72323002  0.93733665  0.34993937     0.11600
H200        H  0.77242910  0.93679276  0.33284520     0.10900
H201        H  0.82897949  0.04843692  0.33321021     0.10800
H202        H  0.77999980  0.04949582  0.35030448     0.11300
H203        H  0.92432638  0.03085439  0.31932781     0.11400
H204        H  0.97136600  0.03367769  0.29772179     0.11300
H205        H  0.89661190  0.95546614  0.25606512     0.11500
H206        H  0.84959313  0.95325392  0.27755371     0.10300
C207        C  0.24561513  0.25288239  0.34630800    -0.03500
C208        C  0.24754783  0.22260694  0.34235460    -0.09300
C209        C  0.21958339  0.19354881  0.33326225    -0.16900
C210        C  0.18931646  0.19428757  0.32796279     0.25200
C211        C  0.18700438  0.22414400  0.33195006    -0.18600
C212        C  0.21491438  0.25323760  0.34108098    -0.07500
C213        C  0.16106272  0.16479288  0.31786785    -0.13900
C214        C  0.13787689  0.14058048  0.30874841    -0.13700
C215        C  0.11059294  0.11243447  0.29712905     0.25100
C216        C  0.07645783  0.10590597  0.29888697    -0.19100
C217        C  0.05015331  0.07941054  0.28701353    -0.07500
C218        C  0.05769055  0.05913661  0.27333516    -0.03600
C219        C  0.09192177  0.06566037  0.27165575    -0.08900
C220        C  0.11826697  0.09221691  0.28350615    -0.16600
H221        H  0.27068811  0.22133242  0.34622060     0.11600
H222        H  0.22168079  0.17059445  0.33021319     0.10900
H223        H  0.16372222  0.22503605  0.32785408     0.10800
H224        H  0.21249840  0.27605661  0.34388160     0.11300
H225        H  0.07026216  0.12160368  0.30919511     0.11400
H226        H  0.02419081  0.07548243  0.28802523     0.11300
H227        H  0.09818651  0.05024903  0.26114935     0.13100
H228        H  0.14461423  0.09713975  0.28193786     0.10300
C229        C  0.00123635  0.74963504  0.34849543    -0.03500
C230        C  0.03269665  0.77964157  0.34363718    -0.09300
C231        C  0.03282119  0.80832191  0.33421507    -0.16900
C232        C  0.00157672  0.80749362  0.32954394     0.25200
C233        C  0.97016430  0.77786020  0.33435280    -0.18600
C234        C  0.96995146  0.74911832  0.34375020    -0.07500
C235        C  0.00175288  0.83675940  0.31942227    -0.13900
C236        C  0.00198946  0.86090520  0.31038197    -0.13700
C237        C  0.00240624  0.88913675  0.29876752     0.25100
C238        C  0.97784934  0.89948278  0.30302897    -0.19100
C239        C  0.97747347  0.92596521  0.29108036    -0.07500
C240        C  0.00142555  0.94203028  0.27463672    -0.03600
C241        C  0.02656102  0.93218348  0.27080927    -0.08900
C242        C  0.02694521  0.90577188  0.28276325    -0.16600
H243        H  0.05725961  0.78097825  0.34703014     0.11600
H244        H  0.05729629  0.83109244  0.33049706     0.10900
H245        H  0.94581627  0.77690668  0.33075824     0.10800
H246        H  0.94526680  0.72652845  0.34728069     0.11300
H247        H  0.95874331  0.88678664  0.31537843     0.11400
H248        H  0.95792510  0.93325439  0.29425292     0.11300
H249        H  0.04556210  0.94463989  0.25838093     0.11500
H250        H  0.04612167  0.89806207  0.27936963     0.10300
C251        C  0.05695995  0.35937011  0.61673987    -0.03500
C252        C  0.05709617  0.39083610  0.61331178    -0.09300
C253        C  0.08704597  0.42021372  0.60646732    -0.16900
C254        C  0.11730636  0.41864200  0.60286533     0.25200
C255        C  0.11783211  0.38775605  0.60684977    -0.18600
C256        C  0.08783006  0.35826286  0.61389410    -0.07500
C257        C  0.14684019  0.44827894  0.59385144    -0.13900
C258        C  0.16929226  0.47361061  0.58512752    -0.13700
C259        C  0.19379606  0.50387072  0.57360054     0.25100
C260        C  0.22343894  0.52967844  0.58363847    -0.19100
C261        C  0.24687092  0.55922108  0.57236564    -0.07500
C262        C  0.24087623  0.56332542  0.55088759    -0.03600
C263        C  0.21087111  0.53727324  0.54100550    -0.08900
C264        C  0.18753806  0.50780271  0.55229652    -0.16600
H265        H  0.03381268  0.39260061  0.61552714     0.11600
H266        H  0.08633288  0.44395179  0.60344747     0.10900
H267        H  0.14112269  0.38623820  0.60402989     0.10800
H268        H  0.08842140  0.33434575  0.61631024     0.11300
H269        H  0.22845373  0.52696356  0.60015395     0.11400
H270        H  0.26973881  0.57872326  0.58043741     0.11300
H271        H  0.20548762  0.53951584  0.52449854     0.11500
H272        H  0.16459275  0.48804936  0.54439087     0.10300
C273        C  0.31283642  0.56291121  0.45508247    -0.03500
C274        C  0.27850526  0.53769156  0.45030492    -0.09300
C275        C  0.27170069  0.50996466  0.43692492    -0.16900
C276        C  0.29907733  0.50719551  0.42806457     0.25200
C277        C  0.33329434  0.53218450  0.43265553    -0.18600
C278        C  0.34017827  0.55986121  0.44610196    -0.07500
C279        C  0.29237705  0.47818390  0.41484453    -0.13900
C280        C  0.28989621  0.45418038  0.40458696    -0.13700
C281        C  0.29189217  0.42662081  0.39390771     0.25100
C282        C  0.32423045  0.42884329  0.39167904    -0.19100
C283        C  0.32678803  0.40123130  0.38314504    -0.07500
C284        C  0.29694221  0.37079996  0.37668718    -0.03600
C285        C  0.26453514  0.36919342  0.37825968    -0.08900
C286        C  0.26203128  0.39697563  0.38692540    -0.16600
H287        H  0.25686421  0.53920383  0.45703921     0.11600
H288        H  0.24513273  0.49062323  0.43359463     0.10900
H289        H  0.35467339  0.53014302  0.42594112     0.10800
H290        H  0.36685284  0.57885850  0.44942395     0.11300
H291        H  0.34748607  0.45166092  0.39704010     0.11400
H292        H  0.35218036  0.40351677  0.38203912     0.11300
H293        H  0.24109045  0.34613040  0.37345305     0.11500
H294        H  0.23683479  0.39500122  0.38863765     0.10300
C295        C  0.31294955  0.93716466  0.62775616    -0.03500
C296        C  0.34271465  0.93787802  0.61948107    -0.09300
C297        C  0.34147809  0.90755573  0.61237408    -0.16900
C298        C  0.31057830  0.87603697  0.61344018     0.25200
C299        C  0.28108432  0.87466449  0.62240128    -0.18600
C300        C  0.28228169  0.90510120  0.62963499    -0.07500
C301        C  0.30914392  0.84600590  0.60386240    -0.13900
C302        C  0.31119051  0.82385516  0.59401863    -0.13700
C303        C  0.31654101  0.80055316  0.58083022     0.25100
C304        C  0.32818392  0.81021197  0.56000726    -0.19100
C305        C  0.33398082  0.78802112  0.54710437    -0.07500
C306        C  0.32824277  0.75584223  0.55491232    -0.03600
C307        C  0.31683888  0.74652085  0.57595827    -0.08900
C308        C  0.31100538  0.76875944  0.58881920    -0.16600
H309        H  0.36683372  0.96203281  0.61796237     0.11600
H310        H  0.36443226  0.90887413  0.60545890     0.10900
H311        H  0.25699656  0.85033042  0.62324331     0.10800
H312        H  0.25895006  0.90371081  0.63592807     0.11300
H313        H  0.33274126  0.83490635  0.55372925     0.11400
H314        H  0.34272021  0.79597475  0.53099634     0.11300
H315        H  0.31205215  0.72188602  0.58243698     0.11500
H316        H  0.30215749  0.76114827  0.60495450     0.10300
C317        C  0.43398237  0.75112821  0.45587263    -0.03500
C318        C  0.45578305  0.74002835  0.44668220    -0.09300
C319        C  0.48372683  0.76247291  0.43404569    -0.16900
C320        C  0.49027330  0.79627694  0.43038235     0.25200
C321        C  0.46862525  0.80754103  0.43926519    -0.18600
C322        C  0.44059731  0.78511155  0.45192178    -0.07500
C323        C  0.51977082  0.81984648  0.41806272    -0.13900
C324        C  0.54452695  0.84177056  0.40869928    -0.13700
C325        C  0.57323890  0.87138534  0.39915882     0.25100
C326        C  0.57341477  0.90297773  0.39921228    -0.19100
C327        C  0.60185348  0.93272649  0.39136753    -0.07500
C328        C  0.63075775  0.93141956  0.38332800    -0.03600
C329        C  0.63009546  0.89932683  0.38283640    -0.08900
C330        C  0.60144269  0.86942821  0.39078600    -0.16600
H331        H  0.45144535  0.71403572  0.44936911     0.11600
H332        H  0.50038487  0.75354995  0.42729536     0.10900
H333        H  0.47360136  0.83376781  0.43655945     0.10800
H334        H  0.42437398  0.79446929  0.45876068     0.11300
H335        H  0.55173775  0.90475938  0.40568144     0.11400
H336        H  0.60129948  0.95687610  0.39191855     0.11300
H337        H  0.65192250  0.89746233  0.37676380     0.11500
H338        H  0.60153792  0.84502088  0.39073327     0.10300
C339        C  0.24387496  0.68254921  0.46038496    -0.03500
C340        C  0.21325115  0.65372143  0.45314194    -0.09300
C341        C  0.18980661  0.65835555  0.44061380    -0.16900
C342        C  0.19658307  0.69179220  0.43522441     0.25200
C343        C  0.22672691  0.72063602  0.44256208    -0.18600
C344        C  0.25027177  0.71608158  0.45503718    -0.07500
C345        C  0.17242592  0.69633447  0.42224680    -0.13900
C346        C  0.15071866  0.69824226  0.41173418    -0.13700
C347        C  0.12226849  0.69724834  0.40020388     0.25100
C348        C  0.12334252  0.72783740  0.39327099    -0.19100
C349        C  0.09423780  0.72649576  0.38361139    -0.07500
C350        C  0.06372751  0.69451546  0.38099232    -0.03600
C351        C  0.06348968  0.66390623  0.38733715    -0.08900
C352        C  0.09252538  0.66530970  0.39686858    -0.16600
H353        H  0.20756056  0.62759269  0.45696365     0.11600
H354        H  0.16644829  0.63585056  0.43506383     0.10900
H355        H  0.23210431  0.74662506  0.43857236     0.10800
H356        H  0.27350561  0.73882446  0.46044762     0.11300
H357        H  0.14630500  0.75271756  0.39579694     0.11400
H358        H  0.09520270  0.75049679  0.37893556     0.11300
H359        H  0.04054875  0.63882603  0.38540853     0.11500
H360        H  0.09146046  0.64148848  0.40212802     0.10300
C361        C  0.43466310  0.67098455  0.54976409    -0.03500
C362        C  0.43906428  0.68288012  0.57083199    -0.09300
C363        C  0.46890108  0.68990894  0.58219578    -0.16900
C364        C  0.49464909  0.68510615  0.57267154     0.25200
C365        C  0.49033941  0.67289984  0.55183632    -0.18600
C366        C  0.46059309  0.66593301  0.54042283    -0.07500
C367        C  0.52527799  0.69197723  0.58427696    -0.13900
C368        C  0.55091322  0.69544078  0.59306652    -0.13700
C369        C  0.58065772  0.69546703  0.60213939     0.25100
C370        C  0.58056916  0.66402337  0.60408843    -0.19100
C371        C  0.60985862  0.66343550  0.61151853    -0.07500
C372        C  0.63986356  0.69438802  0.61715219    -0.03600
C373        C  0.63953883  0.72592555  0.61562141    -0.08900
C374        C  0.61005171  0.72644528  0.60806615    -0.16600
H375        H  0.41968298  0.68720367  0.57846081     0.11600
H376        H  0.47192968  0.69918450  0.59835628     0.10900
H377        H  0.51005840  0.66888845  0.54437584     0.10800
H378        H  0.45804452  0.65684772  0.52425219     0.11300
H379        H  0.55799203  0.63992455  0.59950774     0.11400
H380        H  0.60905503  0.63864631  0.61258249     0.11300
H381        H  0.66224822  0.75017095  0.61975405     0.11500
H382        H  0.61037999  0.75096694  0.60651873     0.10300
C383        C  0.75177628  0.31821290  0.53915617    -0.03500
C384        C  0.74397293  0.30665035  0.56029604    -0.09300
C385        C  0.76645447  0.29954306  0.57209140    -0.16900
C386        C  0.79699076  0.30387711  0.56294102     0.25200
C387        C  0.80502124  0.31536765  0.54194875    -0.18600
C388        C  0.78254949  0.32244699  0.53009342    -0.07500
C389        C  0.82071865  0.29765393  0.57522725    -0.13900
C390        C  0.84256821  0.29472151  0.58491480    -0.13700
C391        C  0.87159348  0.29494106  0.59521934     0.25100
C392        C  0.86999499  0.26409053  0.60210861    -0.19100
C393        C  0.89942919  0.26468298  0.61072368    -0.07500
C394        C  0.93076386  0.29616385  0.61235671    -0.03600
C395        C  0.93166748  0.32704306  0.60588429    -0.08900
C396        C  0.90232791  0.32638735  0.59739761    -0.16600
H397        H  0.72041845  0.30294898  0.56773110     0.11600
H398        H  0.76008122  0.29079910  0.58835427     0.10900
H399        H  0.82872408  0.31896564  0.53476376     0.10800
H400        H  0.78926640  0.33120378  0.51386734     0.11300
H401        H  0.84627567  0.23957872  0.60043827     0.11400
H402        H  0.89792202  0.24048684  0.61552143     0.11300
H403        H  0.95524530  0.35177786  0.60703946     0.11500
H404        H  0.90383256  0.35040043  0.59212272     0.10300
C405        C  0.69163845  0.05794398  0.37966896    -0.03500
C406        C  0.72213524  0.09013718  0.37774563    -0.09300
C407        C  0.72257688  0.12069515  0.38396303    -0.16900
C408        C  0.69253319  0.11932680  0.39201076     0.25200
C409        C  0.66196892  0.08756686  0.39344595    -0.18600
C410        C  0.66146675  0.05714011  0.38732893    -0.07500
C411        C  0.69294451  0.14985621  0.39999624    -0.13900
C412        C  0.69038598  0.17288752  0.40835823    -0.13700
C413        C  0.68495223  0.19766548  0.41994837     0.25100
C414        C  0.65203142  0.18808467  0.42791476    -0.19100
C415        C  0.64689750  0.21128106  0.44027678    -0.07500
C416        C  0.67473295  0.24437697  0.44487916    -0.03600
C417        C  0.70764962  0.25391905  0.43653454    -0.08900
C418        C  0.71269724  0.23067083  0.42416745    -0.16600
H419        H  0.74577036  0.09162844  0.37193396     0.11600
H420        H  0.74642764  0.14521520  0.38287319     0.10900
H421        H  0.63860806  0.08622110  0.39969826     0.10800
H422        H  0.63745458  0.03290460  0.38893247     0.11300
H423        H  0.63041501  0.16248748  0.42481377     0.11400
H424        H  0.62126861  0.20312173  0.44644886     0.11300
H425        H  0.72962541  0.27920994  0.43974765     0.11500
H426        H  0.73830706  0.23826445  0.41815136     0.10300
C427        C  0.37039369  0.06304650  0.62019267    -0.03500
C428        C  0.36832014  0.09353529  0.61760102    -0.09300
C429        C  0.39526396  0.12263454  0.60766195    -0.16900
C430        C  0.42454351  0.12155905  0.60039274     0.25200
C431        C  0.42710348  0.09165590  0.60340026    -0.18600
C432        C  0.40031419  0.06265906  0.61319063    -0.07500
C433        C  0.45163579  0.15030421  0.58908903    -0.13900
C434        C  0.47522077  0.17201388  0.57878639    -0.13700
C435        C  0.50386757  0.19568047  0.56586830     0.25100
C436        C  0.53158113  0.22501998  0.57491746    -0.19100
C437        C  0.55984736  0.24740991  0.56243730    -0.07500
C438        C  0.56076873  0.24068896  0.54070744    -0.03600
C439        C  0.53277598  0.21107017  0.53177731    -0.08900
C440        C  0.50455136  0.18872021  0.54430200    -0.16600
H441        H  0.34558467  0.09458647  0.62272566     0.11600
H442        H  0.39301995  0.14569190  0.60535006     0.10900
H443        H  0.44962723  0.09053359  0.59784880     0.10800
H444        H  0.40292796  0.03973842  0.61502126     0.11300
H445        H  0.53140086  0.23053039  0.59162285     0.11400
H446        H  0.58092339  0.27000868  0.56981583     0.11300
H447        H  0.53263369  0.20516639  0.51512186     0.11500
H448        H  0.48329990  0.16593561  0.53717487     0.10300
C449        C  0.36583564  0.31225992  0.37321638    -0.03500
C450        C  0.39459183  0.34273054  0.38076454    -0.09300
C451        C  0.42440036  0.34241666  0.38747738    -0.16900
C452        C  0.42604614  0.31174650  0.38673445     0.25200
C453        C  0.39808131  0.28149371  0.37864140    -0.18600
C454        C  0.36813188  0.28174461  0.37183675    -0.07500
C455        C  0.45555448  0.31119313  0.39573197    -0.13900
C456        C  0.48001205  0.31273299  0.40503114    -0.13700
C457        C  0.50842776  0.31616365  0.41776628     0.25100
C458        C  0.51078551  0.28681994  0.42331363    -0.19100
C459        C  0.53736134  0.28999520  0.43666336    -0.07500
C460        C  0.56189945  0.32262223  0.44470806    -0.03600
C461        C  0.55943684  0.35201111  0.43889478    -0.08900
C462        C  0.53283986  0.34875454  0.42551256    -0.16600
H463        H  0.39386778  0.36674674  0.38194527     0.11600
H464        H  0.44586781  0.36594344  0.39376520     0.10900
H465        H  0.39908393  0.25756227  0.37808577     0.10800
H466        H  0.34648327  0.25787132  0.36611649     0.11300
H467        H  0.49188528  0.26144890  0.41750948     0.11400
H468        H  0.53850007  0.26683231  0.44079889     0.11300
H469        H  0.57793247  0.37747671  0.44474681     0.11500
H470        H  0.53109143  0.37160989  0.42139139     0.10300
C471        C  0.75046732  0.43365120  0.44645296    -0.03500
C472        C  0.78276034  0.43664057  0.44162021    -0.09300
C473        C  0.80664090  0.46410143  0.42912019    -0.16900
C474        C  0.79856231  0.48885135  0.42123781     0.25200
C475        C  0.76639843  0.48592728  0.42575661    -0.18600
C476        C  0.74248456  0.45852338  0.43826807    -0.07500
C477        C  0.82389223  0.51793016  0.40924917    -0.13900
C478        C  0.84687581  0.54251503  0.40029007    -0.13700
C479        C  0.87685667  0.57157356  0.39123578     0.25100
C480        C  0.87562879  0.60099649  0.38423065    -0.19100
C481        C  0.90579672  0.63012944  0.37703180    -0.07500
C482        C  0.93751724  0.63013600  0.37695352    -0.03600
C483        C  0.93813355  0.60002165  0.38348509    -0.08900
C484        C  0.90805379  0.57103101  0.39056205    -0.16600
H485        H  0.78971360  0.41795982  0.44763727     0.11600
H486        H  0.83155432  0.46622347  0.42577744     0.10900
H487        H  0.75993393  0.50500771  0.41979345     0.10800
H488        H  0.71783262  0.45695904  0.44162106     0.11300
H489        H  0.85157970  0.60169971  0.38476794     0.11400
H490        H  0.90449229  0.65292929  0.37218111     0.11300
H491        H  0.96203057  0.59901415  0.38352332     0.11500
H492        H  0.90930641  0.54842532  0.39596763     0.10300
C493        C  0.70235837  0.62969204  0.62012632    -0.03500
C494        C  0.73371835  0.63026377  0.61585073    -0.09300
C495        C  0.73349042  0.60058153  0.60804747    -0.16900
C496        C  0.70198055  0.57010240  0.60477054     0.25200
C497        C  0.67087354  0.56891231  0.61008483    -0.18600
C498        C  0.67101870  0.59847111  0.61768292    -0.07500
C499        C  0.70079893  0.54092914  0.59414279    -0.13900
C500        C  0.69654768  0.51639321  0.58374930    -0.13700
C501        C  0.68891056  0.48745991  0.57023204     0.25100
C502        C  0.68727269  0.45744765  0.57861604    -0.19100
C503        C  0.67940203  0.42922961  0.56543336    -0.07500
C504        C  0.67297600  0.43066788  0.54366986    -0.03600
C505        C  0.67426291  0.46083281  0.53546169    -0.08900
C506        C  0.68220655  0.48903966  0.54868104    -0.16600
H507        H  0.75819316  0.65400273  0.61751663     0.11600
H508        H  0.75771484  0.60176195  0.60387139     0.10900
H509        H  0.64636632  0.54547135  0.60758831     0.10800
H510        H  0.64647001  0.59715712  0.62103564     0.11300
H511        H  0.69215603  0.45588389  0.59531085     0.11400
H512        H  0.67860016  0.40639345  0.57227536     0.11300
H513        H  0.66957681  0.46282855  0.51879697     0.11500
H514        H  0.68319864  0.51212612  0.54208085     0.10300
C515        C  0.74450567  0.99560210  0.15235743    -0.03500
C516        C  0.77559421  0.02683893  0.15564665    -0.09300
C517        C  0.80411039  0.02668660  0.16507689    -0.16900
C518        C  0.80203990  0.99538620  0.17136765     0.25200
C519        C  0.77137678  0.96415951  0.16799380    -0.18600
C520        C  0.74283976  0.96422163  0.15853655    -0.07500
C521        C  0.83110358  0.99543643  0.18170853    -0.13900
C522        C  0.85534648  0.99604215  0.19084983    -0.13700
C523        C  0.88414854  0.99751332  0.20239196     0.25100
C524        C  0.89516189  0.97335375  0.19839552    -0.19100
C525        C  0.92259982  0.97441911  0.21002801    -0.07500
C526        C  0.93898658  0.99940924  0.22592240    -0.03600
C527        C  0.92834409  0.02403169  0.22953969    -0.08900
C528        C  0.90100914  0.02300555  0.21788210    -0.16600
H529        H  0.77789726  0.05144942  0.15103113     0.11600
H530        H  0.82770486  0.05103204  0.16760673     0.10900
H531        H  0.76942643  0.93976208  0.17281226     0.10800
H532        H  0.71939576  0.93968000  0.15625066     0.11300
H533        H  0.88234438  0.95352230  0.18644649     0.11400
H534        H  0.93043566  0.95520469  0.20703694     0.11300
H535        H  0.94094014  0.04375705  0.24157043     0.11500
H536        H  0.89283406  0.04191067  0.22107227     0.10300
C537        C  0.99907544  0.74812293  0.15236981    -0.03500
C538        C  0.03001309  0.77842797  0.15761218    -0.09300
C539        C  0.02910936  0.80631241  0.16732448    -0.16900
C540        C  0.99734311  0.80435330  0.17188551     0.25200
C541        C  0.96646785  0.77458973  0.16644640    -0.18600
C542        C  0.96728198  0.74667623  0.15674634    -0.07500
C543        C  0.99636963  0.83254774  0.18253436    -0.13900
C544        C  0.99553612  0.85590080  0.19178638    -0.13700
C545        C  0.99502697  0.88380390  0.20310630     0.25100
C546        C  0.97243255  0.87668593  0.22019475    -0.19100
C547        C  0.97287835  0.90388887  0.23163502    -0.07500
C548        C  0.99630992  0.93854937  0.22630205    -0.03600
C549        C  0.01783984  0.94538452  0.20861031    -0.08900
C550        C  0.01743961  0.91819801  0.19719584    -0.16600
H551        H  0.05493503  0.78049955  0.15444599     0.11600
H552        H  0.05318105  0.82926100  0.17145624     0.10900
H553        H  0.94173362  0.77281596  0.16988655     0.10800
H554        H  0.94296820  0.72385280  0.15288726     0.11300
H555        H  0.95468488  0.85015118  0.22477604     0.11400
H556        H  0.95514878  0.89786406  0.24476770     0.11300
H557        H  0.03546404  0.97167121  0.20383047     0.11500
H558        H  0.03482683  0.92401662  0.18387906     0.10300
C559        C  0.24911990  0.24496981  0.14966376    -0.03500
C560        C  0.21774822  0.24547220  0.15164907    -0.09300
C561        C  0.18932217  0.21839683  0.16187878    -0.16900
C562        C  0.19177131  0.19044440  0.17034004     0.25200
C563        C  0.22276897  0.18958040  0.16836680    -0.18600
C564        C  0.25122618  0.21658378  0.15807157    -0.07500
C565        C  0.16264225  0.16289835  0.18125702    -0.13900
C566        C  0.13852261  0.13994107  0.19064002    -0.13700
C567        C  0.11026877  0.11240067  0.20214442     0.25100
C568        C  0.10452626  0.07842448  0.20079054    -0.19100
C569        C  0.07788855  0.05184386  0.21247055    -0.07500
C570        C  0.05663385  0.05889543  0.22557188    -0.03600
C571        C  0.06232414  0.09295364  0.22681520    -0.08900
C572        C  0.08900750  0.11957856  0.21514274    -0.16600
H573        H  0.21510850  0.26680798  0.14532437     0.11600
H574        H  0.16548156  0.21936900  0.16328384     0.10900
H575        H  0.22500636  0.16810349  0.17487764     0.10800
H576        H  0.27494954  0.21537149  0.15690479     0.11300
H577        H  0.12098709  0.07257745  0.19097083     0.11400
H578        H  0.07474026  0.02611685  0.21185418     0.11300
H579        H  0.04628680  0.09890734  0.23695495     0.11500
H580        H  0.09325757  0.14577173  0.21640685     0.10300
C581        C  0.23965480  0.56665180  0.95295827    -0.03500
C582        C  0.24419555  0.56749886  0.93083352    -0.09300
C583        C  0.22179644  0.53926910  0.91829381    -0.16900
C584        C  0.19467339  0.50979991  0.92768324     0.25200
C585        C  0.18991665  0.50870889  0.94965276    -0.18600
C586        C  0.21222150  0.53690325  0.96222137    -0.07500
C587        C  0.17124197  0.48084404  0.91485182    -0.13900
C588        C  0.14986944  0.45620571  0.90507728    -0.13700
C589        C  0.12164177  0.42665433  0.89505037     0.25100
C590        C  0.09089067  0.42706840  0.89093321    -0.19100
C591        C  0.06192047  0.39733610  0.88346054    -0.07500
C592        C  0.06324753  0.36664102  0.87994444    -0.03600
C593        C  0.09470220  0.36682041  0.88322498    -0.08900
C594        C  0.12372603  0.39668138  0.89085867    -0.16600
H595        H  0.26508000  0.58994598  0.92319414     0.11600
H596        H  0.22563420  0.54043576  0.90129427     0.10900
H597        H  0.16893131  0.48604326  0.95707923     0.10800
H598        H  0.20808180  0.53529749  0.97919091     0.11300
H599        H  0.08896975  0.45009152  0.89411126     0.11400
H600        H  0.03820515  0.39819404  0.88090136     0.11300
H601        H  0.09648374  0.34357934  0.88070903     0.11500
H602        H  0.14742264  0.39607674  0.89406534     0.10300
C603        C  0.31973286  0.56127091  0.04612650    -0.03500
C604        C  0.28782120  0.53929743  0.05601282    -0.09300
C605        C  0.28357525  0.51115848  0.06826869    -0.16900
C606        C  0.31110628  0.50457490  0.07083361     0.25200
C607        C  0.34297778  0.52629255  0.06115385    -0.18600
C608        C  0.34732021  0.55450613  0.04888809    -0.07500
C609        C  0.30656491  0.47514254  0.08300084    -0.13900
C610        C  0.30430608  0.45040572  0.09240097    -0.13700
C611        C  0.30462165  0.42125430  0.10222777     0.25100
C612        C  0.33592526  0.42105832  0.10384716    -0.19100
C613        C  0.33652419  0.39195902  0.11177787    -0.07500
C614        C  0.30572750  0.36248388  0.11823334    -0.03600
C615        C  0.27442955  0.36326198  0.11719219    -0.08900
C616        C  0.27389090  0.39250384  0.10913739    -0.16600
H617        H  0.26603255  0.54374774  0.05424671     0.11600
H618        H  0.25878309  0.49445558  0.07564721     0.10900
H619        H  0.36443060  0.52131170  0.06300431     0.10800
H620        H  0.37216479  0.57086186  0.04149769     0.11300
H621        H  0.35984169  0.44316831  0.09854445     0.11400
H622        H  0.36112191  0.39239029  0.11249377     0.11300
H623        H  0.25030111  0.34098164  0.12199542     0.11500
H624        H  0.24948557  0.39240619  0.10789206     0.10300
C625        C  0.30410905  0.94714206  0.89077358    -0.03500
C626        C  0.27374372  0.91492689  0.88837812    -0.09300
C627        C  0.27140589  0.88493657  0.89741528    -0.16900
C628        C  0.29934381  0.88689359  0.90891591     0.25200
C629        C  0.32967379  0.91869847  0.91116697    -0.18600
C630        C  0.33211292  0.94857633  0.90215497    -0.07500
C631        C  0.29740748  0.85663607  0.91863339    -0.13900
C632        C  0.29921408  0.83345516  0.92747332    -0.13700
C633        C  0.30469730  0.80807661  0.93841303     0.25100
C634        C  0.31746002  0.81442277  0.95918266    -0.19100
C635        C  0.32433767  0.79056859  0.96958635    -0.07500
C636        C  0.31862805  0.76007185  0.95928009    -0.03600
C637        C  0.30570742  0.75392144  0.93839555    -0.08900
C638        C  0.29880735  0.77780174  0.92804497    -0.16600
H639        H  0.25175139  0.91292148  0.87968962     0.11600
H640        H  0.24781879  0.86035674  0.89555420     0.10900
H641        H  0.35144595  0.92045316  0.92002282     0.10800
H642        H  0.35587063  0.97286471  0.90435450     0.11300
H643        H  0.32230939  0.83792663  0.96729045     0.11400
H644        H  0.33414884  0.79603911  0.98566675     0.11300
H645        H  0.30084112  0.73062365  0.93004763     0.11500
H646        H  0.28910853  0.77276413  0.91192259     0.10300
C647        C  0.06443509  0.69286704  0.12475416    -0.03500
C648        C  0.06472172  0.66211290  0.11960525    -0.09300
C649        C  0.09487348  0.66322933  0.11230086    -0.16900
C650        C  0.12522424  0.69502136  0.11001844     0.25200
C651        C  0.12563935  0.72575439  0.11573473    -0.18600
C652        C  0.09541136  0.72469920  0.12317232    -0.07500
C653        C  0.15490558  0.69576994  0.10039421    -0.13900
C654        C  0.17719048  0.69355843  0.09082175    -0.13700
C655        C  0.20102199  0.68840806  0.07801377     0.25100
C656        C  0.23474091  0.71551137  0.07475241    -0.19100
C657        C  0.25725334  0.71070072  0.06152488    -0.07500
C658        C  0.24626935  0.67865317  0.05139042    -0.03600
C659        C  0.21240070  0.65148501  0.05494925    -0.08900
C660        C  0.18994725  0.65638786  0.06814982    -0.16600
H661        H  0.04143117  0.63713484  0.12078555     0.11600
H662        H  0.09426059  0.63930569  0.10789262     0.10900
H663        H  0.14902206  0.75053315  0.11393698     0.10800
H664        H  0.09600809  0.74880728  0.12697379     0.11300
H665        H  0.24351952  0.74043200  0.08225915     0.11400
H666        H  0.28317403  0.73214109  0.05915175     0.11300
H667        H  0.20311327  0.62654786  0.04737943     0.11500
H668        H  0.16381351  0.63528250  0.07050688     0.10300
C669        C  0.62547309  0.93205990  0.12365880    -0.03500
C670        C  0.59662655  0.93273522  0.11482849    -0.09300
C671        C  0.56834033  0.90241404  0.10735673    -0.16900
C672        C  0.56826930  0.87088399  0.10860966     0.25200
C673        C  0.59623215  0.86957103  0.11802091    -0.18600
C674        C  0.62468696  0.89999703  0.12557001    -0.07500
C675        C  0.54035624  0.84071038  0.09889339    -0.13900
C676        C  0.51670927  0.81819892  0.08904055    -0.13700
C677        C  0.48847237  0.79444825  0.07587235     0.25100
C678        C  0.48433950  0.76185565  0.07094478    -0.19100
C679        C  0.45741021  0.73944692  0.05756979    -0.07500
C680        C  0.43424974  0.74939819  0.04896878    -0.03600
C681        C  0.43866820  0.78222521  0.05405820    -0.08900
C682        C  0.46562129  0.80456994  0.06738397    -0.16600
H683        H  0.59615894  0.95684053  0.11319216     0.11600
H684        H  0.54685043  0.90372932  0.10008882     0.10900
H685        H  0.59643273  0.84525416  0.11904168     0.10800
H686        H  0.64639961  0.89854266  0.13232475     0.11300
H687        H  0.50199409  0.75383554  0.07734519     0.11400
H688        H  0.45471062  0.71433670  0.05400557     0.11300
H689        H  0.42138536  0.79072880  0.04769394     0.11500
H690        H  0.46873835  0.82985120  0.07099489     0.10300
C691        C  0.62703719  0.69921151  0.87661527    -0.03500
C692        C  0.62623434  0.73058612  0.87631221    -0.09300
C693        C  0.59655033  0.73145996  0.88294774    -0.16900
C694        C  0.56735188  0.70096108  0.88970474     0.25200
C695        C  0.56756439  0.66953148  0.88926116    -0.18600
C696        C  0.59711841  0.66861953  0.88278796    -0.07500
C697        C  0.53806939  0.70174909  0.89881084    -0.13900
C698        C  0.51357275  0.69921105  0.90852126    -0.13700
C699        C  0.48517946  0.69315973  0.92213685     0.25100
C700        C  0.48551045  0.68366962  0.94327565    -0.19100
C701        C  0.45775286  0.67663613  0.95662404    -0.07500
C702        C  0.42915994  0.67898587  0.94900049    -0.03600
C703        C  0.42906865  0.68863260  0.92769630    -0.08900
C704        C  0.45690979  0.69561948  0.91434639    -0.16600
H705        H  0.64886986  0.75457413  0.87169209     0.11600
H706        H  0.59671190  0.75598552  0.88335739     0.10900
H707        H  0.54516646  0.64580242  0.89452203     0.10800
H708        H  0.59672528  0.64398313  0.88305670     0.11300
H709        H  0.50722722  0.68156199  0.94943870     0.11400
H710        H  0.45876508  0.66945386  0.97292515     0.11300
H711        H  0.40751076  0.69078893  0.92133082     0.11500
H712        H  0.45632508  0.70279944  0.89797991     0.10300
C713        C  0.57138833  0.25024617  0.95077386    -0.03500
C714        C  0.56985118  0.25910578  0.92948059    -0.09300
C715        C  0.54139745  0.23781382  0.91679003    -0.16900
C716        C  0.51411732  0.20746081  0.92520480     0.25200
C717        C  0.51537689  0.19838468  0.94633533    -0.18600
C718        C  0.54380100  0.21962460  0.95906783    -0.07500
C719        C  0.48518638  0.18492294  0.91212942    -0.13900
C720        C  0.46061416  0.16333108  0.90246559    -0.13700
C721        C  0.43132003  0.13380321  0.89331571     0.25100
C722        C  0.40148514  0.13516183  0.88759182    -0.19100
C723        C  0.37159516  0.10487031  0.88140008    -0.07500
C724        C  0.37127875  0.07295188  0.88116149    -0.03600
C725        C  0.40188415  0.07227353  0.88605500    -0.08900
C726        C  0.43165648  0.10248921  0.89206013    -0.16600
H727        H  0.59059460  0.28254974  0.92260702     0.11600
H728        H  0.54072817  0.24497506  0.90042899     0.10900
H729        H  0.49440210  0.17481346  0.95295911     0.10800
H730        H  0.54410463  0.21212335  0.97538665     0.11300
H731        H  0.40095319  0.15930335  0.88861472     0.11400
H732        H  0.34839993  0.10616719  0.87773363     0.11300
H733        H  0.40259193  0.04818487  0.88581239     0.11500
H734        H  0.45460027  0.10116723  0.89648656     0.10300
C735        C  0.36777097  0.29712955  0.12001098    -0.03500
C736        C  0.39904156  0.32799686  0.11636724    -0.09300
C737        C  0.42803184  0.32702875  0.10880003    -0.16900
C738        C  0.42632206  0.29525980  0.10467942     0.25200
C739        C  0.39567480  0.26426559  0.10884508    -0.18600
C740        C  0.36652957  0.26516931  0.11660593    -0.07500
C741        C  0.45553231  0.29514867  0.09490382    -0.13900
C742        C  0.48062555  0.29845886  0.08552501    -0.13700
C743        C  0.51056635  0.30510839  0.07323935     0.25100
C744        C  0.51656565  0.27794595  0.06779846    -0.19100
C745        C  0.54489819  0.28435247  0.05511122    -0.07500
C746        C  0.56763570  0.31808317  0.04766662    -0.03600
C747        C  0.56154985  0.34527380  0.05340571    -0.08900
C748        C  0.53317765  0.33878147  0.06608731    -0.16600
H749        H  0.40094762  0.35303610  0.11896533     0.11600
H750        H  0.45156674  0.35115631  0.10562436     0.10900
H751        H  0.39404639  0.23950391  0.10560894     0.10800
H752        H  0.34275774  0.24101607  0.11914675     0.11300
H753        H  0.49918282  0.25177498  0.07319144     0.11400
H754        H  0.54883662  0.26281827  0.05103090     0.11300
H755        H  0.57851110  0.37149725  0.04796277     0.11500
H756        H  0.52868843  0.35999027  0.07015506     0.10300
C757        C  0.68179775  0.44065890  0.95433144    -0.03500
C758        C  0.67440887  0.46554871  0.96294362    -0.09300
C759        C  0.68051698  0.49480702  0.95117506    -0.16900
C760        C  0.69421238  0.49973114  0.93068901     0.25200
C761        C  0.70168307  0.47516820  0.92195257    -0.18600
C762        C  0.69550686  0.44580333  0.93367480    -0.07500
C763        C  0.69944931  0.52950209  0.91854829    -0.13900
C764        C  0.70116368  0.55416860  0.90930523    -0.13700
C765        C  0.69907191  0.58261624  0.89972803     0.25100
C766        C  0.66833541  0.58385422  0.90160489    -0.19100
C767        C  0.66587703  0.61168636  0.89316992    -0.07500
C768        C  0.69424396  0.63895141  0.88270565    -0.03600
C769        C  0.72501790  0.63733515  0.88061448    -0.08900
C770        C  0.72740221  0.60929177  0.88911158    -0.16600
H771        H  0.66384168  0.46240843  0.97876067     0.11600
H772        H  0.67443899  0.51356450  0.95804363     0.10900
H773        H  0.71214694  0.47863446  0.90607612     0.10800
H774        H  0.70162603  0.42723482  0.92659032     0.11300
H775        H  0.64627355  0.56339363  0.90981033     0.11400
H776        H  0.64176352  0.61194070  0.89510470     0.11300
H777        H  0.74732794  0.65786725  0.87267083     0.11500
H778        H  0.75136777  0.60859857  0.88759372     0.10300
C779        C  0.75955040  0.32408526  0.95186041    -0.03500
C780        C  0.78813198  0.32309261  0.96079161    -0.09300
C781        C  0.80935139  0.31545232  0.94820353    -0.16900
C782        C  0.80229887  0.30866613  0.92657042     0.25200
C783        C  0.77395203  0.30956122  0.91751651    -0.18600
C784        C  0.75265072  0.31716096  0.93007371    -0.07500
C785        C  0.82507809  0.30213898  0.91364496    -0.13900
C786        C  0.84677151  0.29915527  0.90391580    -0.13700
C787        C  0.87622178  0.29958194  0.89421043     0.25100
C788        C  0.87578745  0.26869841  0.88886247    -0.19100
C789        C  0.90601161  0.26957775  0.88156002    -0.07500
C790        C  0.93696030  0.30138712  0.87976134    -0.03600
C791        C  0.93663373  0.33226064  0.88447937    -0.08900
C792        C  0.90651449  0.33131818  0.89163785    -0.16600
H793        H  0.79405001  0.32808779  0.97750676     0.11600
H794        H  0.83137077  0.31498705  0.95533101     0.10900
H795        H  0.76840012  0.30453375  0.90075929     0.10800
H796        H  0.73077812  0.31757319  0.92270995     0.11300
H797        H  0.85243203  0.24396429  0.89089097     0.11400
H798        H  0.90546089  0.24539381  0.87807008     0.11300
H799        H  0.95989051  0.35722815  0.88309429     0.11500
H800        H  0.90713686  0.35535301  0.89575974     0.10300
C801        C  0.75770047  0.43536135  0.04945584    -0.03500
C802        C  0.79134064  0.44087515  0.05305919    -0.09300
C803        C  0.81403717  0.46746470  0.06649044    -0.16900
C804        C  0.80340813  0.48878296  0.07653820     0.25200
C805        C  0.76997892  0.48342326  0.07315581    -0.18600
C806        C  0.74725326  0.45690798  0.05970560    -0.07500
C807        C  0.82731394  0.51685923  0.08970734    -0.13900
C808        C  0.84924964  0.54084456  0.09961970    -0.13700
C809        C  0.87827625  0.56962945  0.10958416     0.25100
C810        C  0.87654665  0.59912230  0.11566372    -0.19100
C811        C  0.90618086  0.62838288  0.12324773    -0.07500
C812        C  0.93787817  0.62844843  0.12462097    -0.03600
C813        C  0.93890290  0.59817436  0.11918150    -0.08900
C814        C  0.90932855  0.56903724  0.11172419    -0.16600
H815        H  0.80021073  0.42481235  0.04541367     0.11600
H816        H  0.83996395  0.47154635  0.06892951     0.10900
H817        H  0.76155643  0.49987605  0.08079113     0.10800
H818        H  0.72152025  0.45333546  0.05732918     0.11300
H819        H  0.85260470  0.59985057  0.11398866     0.11400
H820        H  0.90455432  0.65127417  0.12729834     0.11300
H821        H  0.96277795  0.59720171  0.12021071     0.11500
H822        H  0.91094755  0.54635995  0.10704112     0.10300
C823        C  0.68205008  0.24518078  0.04660758    -0.03500
C824        C  0.71403348  0.25304046  0.05585978    -0.09300
C825        C  0.71676503  0.22900594  0.06900304    -0.16900
C826        C  0.68762503  0.19683295  0.07310131     0.25200
C827        C  0.65576263  0.18870986  0.06391659    -0.18600
C828        C  0.65295058  0.21268648  0.05076989    -0.07500
C829        C  0.69040208  0.17173772  0.08630799    -0.13900
C830        C  0.69127065  0.14904675  0.09644332    -0.13700
C831        C  0.68996165  0.11943110  0.10681690     0.25100
C832        C  0.65868038  0.08819994  0.10733118    -0.19100
C833        C  0.65756430  0.05826385  0.11531867    -0.07500
C834        C  0.68782230  0.05902570  0.12291190    -0.03600
C835        C  0.71895100  0.09087986  0.12314991    -0.08900
C836        C  0.72000391  0.12089924  0.11507246    -0.16600
H837        H  0.73697213  0.27778716  0.05298596     0.11600
H838        H  0.74159690  0.23549943  0.07593265     0.10900
H839        H  0.63306898  0.16378790  0.06689391     0.10800
H840        H  0.62798793  0.20578463  0.04390973     0.11300
H841        H  0.63526921  0.08674924  0.10100257     0.11400
H842        H  0.63306542  0.03432312  0.11503731     0.11300
H843        H  0.74266648  0.09239760  0.12891425     0.11500
H844        H  0.74438910  0.14498108  0.11473508     0.10300
C845        C  0.93898086  0.93996337  0.77305216    -0.03500
C846        C  0.90466304  0.92950217  0.76706189    -0.09300
C847        C  0.87693382  0.90408096  0.77866960    -0.16900
C848        C  0.88317106  0.88920664  0.79657161     0.25200
C849        C  0.91721260  0.90034385  0.80305073    -0.18600
C850        C  0.94491988  0.92571847  0.79143464    -0.07500
C851        C  0.85472945  0.86206717  0.80805766    -0.13900
C852        C  0.83097855  0.83871004  0.81737057    -0.13700
C853        C  0.80249508  0.81030532  0.82806618     0.25100
C854        C  0.80410485  0.78034100  0.83309158    -0.19100
C855        C  0.77616329  0.75243864  0.84310076    -0.07500
C856        C  0.74614074  0.75411767  0.84819005    -0.03600
C857        C  0.74487919  0.78446468  0.84313048    -0.08900
C858        C  0.77288413  0.81234107  0.83315625    -0.16600
H859        H  0.89929262  0.94093367  0.75338977     0.11600
H860        H  0.85067166  0.89590221  0.77361904     0.10900
H861        H  0.92235093  0.88917509  0.81696175     0.10800
H862        H  0.97091199  0.93366736  0.79664697     0.11300
H863        H  0.82690007  0.77847631  0.82918895     0.11400
H864        H  0.77805104  0.72952004  0.84673476     0.11300
H865        H  0.72226975  0.78673124  0.84685760     0.11500
H866        H  0.77136893  0.83542015  0.82932697     0.10300
C867        C  0.00192329  0.05754934  0.77432571    -0.03500
C868        C  0.02626881  0.09233615  0.77003803    -0.09300
C869        C  0.02735243  0.11894696  0.78243982    -0.16900
C870        C  0.00440457  0.11109829  0.79941595     0.25200
C871        C  0.98065923  0.07643139  0.80410627    -0.18600
C872        C  0.97951657  0.04976872  0.79167587    -0.07500
C873        C  0.00474481  0.13868087  0.81165380    -0.13900
C874        C  0.00470713  0.16214242  0.82130552    -0.13700
C875        C  0.00415334  0.19043256  0.83217682     0.25100
C876        C  0.97254319  0.18793537  0.83785906    -0.19100
C877        C  0.97182042  0.21577894  0.84775667    -0.07500
C878        C  0.00278614  0.24663777  0.85210625    -0.03600
C879        C  0.03447859  0.24871334  0.84655416    -0.08900
C880        C  0.03511356  0.22081788  0.83663695    -0.16600
H881        H  0.04435319  0.09889212  0.75704580     0.11600
H882        H  0.04594576  0.14564168  0.77871433     0.10900
H883        H  0.96280640  0.07003834  0.81722219     0.10800
H884        H  0.96068178  0.02312809  0.79532599     0.11300
H885        H  0.94840554  0.16456291  0.83446353     0.11400
H886        H  0.94695875  0.21319107  0.85180845     0.11300
H887        H  0.05880547  0.27201324  0.84963728     0.11500
H888        H  0.05974473  0.22307695  0.83227756     0.10300
C889        C  0.25064422  0.00867279  0.85539976    -0.03500
C890        C  0.25253804  0.03953280  0.84792001    -0.09300
C891        C  0.22426648  0.03877931  0.83760832    -0.16900
C892        C  0.19377577  0.00725689  0.83468019     0.25200
C893        C  0.19142583  0.97650214  0.84230706    -0.18600
C894        C  0.21963784  0.97716341  0.85261930    -0.07500
C895        C  0.16525835  0.00631611  0.82330043    -0.13900
C896        C  0.14170981  0.00528709  0.81320957    -0.13700
C897        C  0.11400837  0.00382519  0.80063201     0.25100
C898        C  0.08009669  0.97689287  0.80365862    -0.19100
C899        C  0.05329343  0.97501544  0.79105510    -0.07500
C900        C  0.06016930  0.99999796  0.77533045    -0.03600
C901        C  0.09420501  0.02717328  0.77251188    -0.08900
C902        C  0.12102643  0.02899083  0.78505880    -0.16600
H903        H  0.27593741  0.06423546  0.84983252     0.11600
H904        H  0.22631234  0.06272754  0.83173110     0.10900
H905        H  0.16791033  0.95196114  0.84009176     0.10800
H906        H  0.21721712  0.95293513  0.85821271     0.11300
H907        H  0.07444847  0.95717321  0.81559001     0.11400
H908        H  0.02747007  0.95359151  0.79321838     0.11300
H909        H  0.09997133  0.04691046  0.76058394     0.11500
H910        H  0.14720508  0.04992342  0.78258113     0.10300
C911        C  0.94469126  0.93851213  0.72471875    -0.03500
C912        C  0.92922720  0.94655621  0.70781159    -0.09300
C913        C  0.90381246  0.92006173  0.69541870    -0.16900
C914        C  0.89396434  0.88535564  0.69967019     0.25200
C915        C  0.91007920  0.87730801  0.71613317    -0.18600
C916        C  0.93537155  0.90374396  0.72856661    -0.07500
C917        C  0.86669234  0.85792937  0.68757714    -0.13900
C918        C  0.84327661  0.83456339  0.67802350    -0.13700
C919        C  0.81487240  0.80619369  0.66719261     0.25100
C920        C  0.81628427  0.77602318  0.66265007    -0.19100
C921        C  0.78836596  0.74807283  0.65267071    -0.07500
C922        C  0.75850979  0.74985706  0.64710713    -0.03600
C923        C  0.75749672  0.78047472  0.65156458    -0.08900
C924        C  0.78547941  0.80840125  0.66155271    -0.16600
H925        H  0.93616045  0.97323109  0.70458808     0.11600
H926        H  0.89154067  0.92659835  0.68271494     0.10900
H927        H  0.90279766  0.85058635  0.71952014     0.10800
H928        H  0.94743426  0.89709021  0.74133423     0.11300
H929        H  0.83887518  0.77398984  0.66696562     0.11400
H930        H  0.79011281  0.72497675  0.64949581     0.11300
H931        H  0.73498737  0.78279446  0.64752517     0.11500
H932        H  0.78407420  0.83161704  0.66501917     0.10300
C933        C  0.99206521  0.24009356  0.64540046    -0.03500
C934        C  0.02311895  0.24105702  0.65140703    -0.09300
C935        C  0.02248638  0.21306705  0.66211832    -0.16900
C936        C  0.99088082  0.18370268  0.66697500     0.25200
C937        C  0.95986014  0.18228585  0.66088948    -0.18600
C938        C  0.96040563  0.21024046  0.65016062    -0.07500
C939        C  0.99036348  0.15533928  0.67850565    -0.13900
C940        C  0.99066943  0.13220815  0.68847213    -0.13700
C941        C  0.99211028  0.10543530  0.70069248     0.25100
C942        C  0.97054686  0.09095631  0.71830363    -0.19100
C943        C  0.97290663  0.06588832  0.73060474    -0.07500
C944        C  0.99727873  0.05540227  0.72563379    -0.03600
C945        C  0.01801794  0.06926369  0.70755416    -0.08900
C946        C  0.01559789  0.09427698  0.69522936    -0.16600
H947        H  0.04795092  0.26353337  0.64799846     0.11600
H948        H  0.04666715  0.21444489  0.66675121     0.10900
H949        H  0.93523662  0.15968053  0.66457153     0.10800
H950        H  0.93600736  0.20855186  0.64578937     0.11300
H951        H  0.95204436  0.09915298  0.72258546     0.11400
H952        H  0.95573591  0.05474496  0.74402736     0.11300
H953        H  0.03651576  0.06125499  0.70313532     0.11500
H954        H  0.03227768  0.10515140  0.68155789     0.10300
C955        C  0.25801328  0.00090265  0.65794816    -0.03500
C956        C  0.22966274  0.96944120  0.66479046    -0.09300
C957        C  0.20172514  0.96911959  0.67518588    -0.16900
C958        C  0.20161982  0.00016557  0.67894181     0.25200
C959        C  0.22977654  0.03163609  0.67238568    -0.18600
C960        C  0.25779406  0.03204391  0.66195741    -0.07500
C961        C  0.17233952  0.99957226  0.68919720    -0.13900
C962        C  0.14747000  0.99870058  0.69753639    -0.13700
C963        C  0.11774594  0.99770575  0.70742695     0.25100
C964        C  0.11024414  0.02455228  0.70387184    -0.19100
C965        C  0.08197163  0.02412798  0.71393230    -0.07500
C966        C  0.06103850  0.99694036  0.72770341    -0.03600
C967        C  0.06830076  0.96976921  0.73094960    -0.08900
C968        C  0.09651431  0.97015365  0.72085724    -0.16600
H969        H  0.22888902  0.94495921  0.66202623     0.11600
H970        H  0.18009426  0.94460175  0.68018304     0.10900
H971        H  0.22998637  0.05584865  0.67521834     0.10800
H972        H  0.27916145  0.05671621  0.65697427     0.11300
H973        H  0.12655505  0.04606800  0.69358189     0.11400
H974        H  0.07728799  0.04563933  0.71160100     0.11300
H975        H  0.05242381  0.94858442  0.74156279     0.11500
H976        H  0.10200796  0.94921285  0.72372471     0.10300
loop_ 
_geom_bond_atom_site_label_1 
_geom_bond_atom_site_label_2 
_geom_bond_distance 
_geom_bond_site_symmetry_2 
_ccdc_geom_bond_type 
C1            H2   1.111       .  S
C1            C7   1.534   1_655  S
C1            C6   1.536   1_665  S
C1            C5   1.538       .  S
C3            H4   1.111       .  S
C3            C9   1.539   1_565  S
C3            C8   1.536   1_455  S
C3           C10   1.536       .  S
C5            C8   1.377       .  D
C5          C845   1.487       .  S
C6            C9   1.378       .  D
C6          C867   1.485       .  S
C7           C10   1.371       .  D
C7          C900   1.480       .  S
C8          C911   1.482       .  S
C9          C944   1.487   1_455  S
C10         C966   1.482       .  S
O11          C27   1.277       .  A
O11         Zn17   2.031       .  S
C12          O28   1.274       .  A
C12          O25   1.277       .  A
C12         C746   1.482       .  S
O13          C26   1.273       .  A
O13         Cd20   2.052       .  S
O14          C32   1.277       .  A
O14         Cd23   2.082   1_556  S
O15          C29   1.277       .  A
O15         Cd19   2.075       .  S
O16          C27   1.274       .  A
O16         Cd19   2.063       .  S
Zn17         O28   2.010       .  S
Zn17         O30   2.030   1_554  S
Zn17         O22   1.935   1_554  S
O18          C29   1.275       .  A
O18         Cd23   2.064       .  S
Cd19         O21   2.075   1_554  S
Cd19         O22   1.989   1_554  S
Cd20         O24   2.056       .  S
Cd20         O33   2.063       .  S
Cd20         O22   1.980       .  S
O21          C31   1.277       .  A
O22         Cd23   1.990   1_556  S
Cd23         O25   2.077       .  S
O24          C31   1.274       .  A
C26          O30   1.277       .  A
C26         C713   1.480       .  S
C27         C823   1.483       .  S
C29         C801   1.481       .  S
C31         C779   1.480       .  S
C32          O33   1.274       .  A
C32         C757   1.483       .  S
C34         C856   1.484       .  S
C34          N35   1.362       .  A
C34          N39   1.362       .  A
N35          C36   1.358       .  A
C36         C691   1.481       .  S
C36          N37   1.355       .  A
N37          C38   1.356       .  A
C38         C768   1.484       .  S
C38          N39   1.359       .  A
O40          C56   1.274       .  A
O40         Zn46   2.012       .  S
C41          O57   1.276       .  A
C41          O54   1.275       .  A
C41         C680   1.482       .  S
O42          C55   1.274       .  A
O42         Cd49   2.060       .  S
O43          C61   1.278       .  A
O43         Cd52   2.078   1_556  S
O44          C58   1.274       .  A
O44         Cd48   2.056       .  S
O45          C56   1.276       .  A
O45         Cd48   2.069       .  S
Zn46         O57   2.024       .  S
Zn46         O59   2.023   1_554  S
Zn46         O51   1.933       .  S
O47          C58   1.278       .  A
O47         Cd52   2.082       .  S
Cd48         O50   2.073   1_554  S
Cd48         O51   1.986       .  S
Cd49         O53   2.066       .  S
Cd49         O62   2.063       .  S
Cd49         O51   1.983   1_556  S
O50          C60   1.276       .  A
O51         Cd52   1.991       .  S
Cd52         O54   2.066       .  S
O53          C60   1.275       .  A
C55          O59   1.276       .  A
C55         C636   1.480       .  S
C56         C658   1.481       .  S
C58         C603   1.481       .  S
C60         C581   1.482       .  S
C61          O62   1.275       .  A
C61         C702   1.482       .  S
C63         C559   1.486       .  S
C63          N64   1.363       .  A
C63          N68   1.364       .  A
N64          C65   1.358       .  A
C65         C614   1.481       .  S
C65          N66   1.353       .  A
N66          C67   1.354       .  A
C67         C735   1.480       .  S
C67          N68   1.361       .  A
C69         C889   1.481       .  S
C69          N70   1.361       .  A
C69          N74   1.360   1_545  A
N70          C71   1.358       .  A
C71         C724   1.478       .  S
C71          N72   1.355       .  A
N72          C73   1.355   1_545  A
C73         C625   1.480       .  S
C73          N74   1.357       .  A
C75         C537   1.484       .  S
C75          N76   1.362   1_655  A
C75          N80   1.362       .  A
N76          C77   1.359       .  A
C77         C647   1.480       .  S
C77          N78   1.355       .  A
N78          C79   1.355   1_455  A
C79         C812   1.480       .  S
C79          N80   1.358       .  A
C81         C878   1.485       .  S
C81          N82   1.363   1_455  A
C81          N86   1.364       .  A
N82          C83   1.359       .  A
C83         C790   1.480       .  S
C83          N84   1.354   1_655  A
N84          C85   1.354       .  A
C85         C592   1.480       .  S
C85          N86   1.360       .  A
C87         C515   1.486       .  S
C87          N88   1.363   1_565  A
C87          N92   1.362       .  A
N88          C89   1.360       .  A
C89         C834   1.484       .  S
C89          N90   1.355   1_545  A
N90          C91   1.355       .  A
C91         C669   1.483       .  S
C91          N92   1.359       .  A
O93         C109   1.274       .  A
O93         Zn99   2.011       .  S
C94         O110   1.277       .  A
C94         O107   1.274       .  A
C94         C471   1.482       .  S
O95         C108   1.273       .  A
O95        Cd102   2.052       .  S
O96         C114   1.277       .  A
O96        Cd105   2.081       .  S
O97         C111   1.274       .  A
O97        Cd101   2.058       .  S
O98         C109   1.276       .  A
O98        Cd101   2.069       .  S
Zn99        O110   2.027       .  S
Zn99        O112   2.028       .  S
Zn99        O104   1.937       .  S
O100        C111   1.277       .  A
O100       Cd105   2.077       .  S
Cd101       O103   2.075       .  S
Cd101       O104   1.990       .  S
Cd102       O106   2.057       .  S
Cd102       O115   2.053       .  S
Cd102       O104   1.980       .  S
O103        C113   1.276       .  A
O104       Cd105   1.992       .  S
Cd105       O107   2.062       .  S
O106        C113   1.273       .  A
C108        O112   1.276       .  A
C108        C383   1.480       .  S
C109        C416   1.480       .  S
C111        C460   1.480       .  S
C113        C438   1.481       .  S
C114        O115   1.273       .  A
C114        C504   1.480       .  S
C116        C922   1.485       .  S
C116        N117   1.363       .  A
C116        N121   1.364       .  A
N117        C118   1.358       .  A
C118        C493   1.476       .  S
C118        N119   1.353       .  A
N119        C120   1.353       .  A
C120        C372   1.481       .  S
C120        N121   1.360       .  A
O122        C138   1.276       .  A
O122       Zn128   2.022       .  S
C123        O139   1.273       .  A
C123        O136   1.276       .  A
C123        C273   1.479       .  S
O124        C137   1.275       .  A
O124       Cd131   2.068       .  S
O125        C143   1.276       .  A
O125       Cd134   2.071       .  S
O126        C140   1.277       .  A
O126       Cd130   2.081       .  S
O127        C138   1.275       .  A
O127       Cd130   2.063       .  S
Zn128       O139   2.006       .  S
Zn128       O141   2.020       .  S
Zn128       O133   1.931       .  S
O129        C140   1.274       .  A
O129       Cd134   2.056       .  S
Cd130       O132   2.071       .  S
Cd130       O133   1.994       .  S
Cd131       O135   2.060       .  S
Cd131       O144   2.062       .  S
Cd131       O133   1.986       .  S
O132        C142   1.276       .  A
O133       Cd134   1.988       .  S
Cd134       O136   2.071       .  S
O135        C142   1.275       .  A
C137        O141   1.275       .  A
C137        C262   1.483       .  S
C138        C339   1.480       .  S
C140        C317   1.481       .  S
C142        C306   1.480       .  S
C143        O144   1.275       .  A
C143        C361   1.480       .  S
C145        C955   1.485       .  S
C145        N146   1.364       .  A
C145        N150   1.362   1_545  A
N146        C147   1.361       .  A
C147        C427   1.482       .  S
C147        N148   1.354       .  A
N148        C149   1.353   1_545  A
C149        C295   1.479       .  S
C149        N150   1.357       .  A
C151        C933   1.485       .  S
C151        N152   1.363   1_655  A
C151        N156   1.363       .  A
N152        C153   1.359       .  A
C153        C251   1.479       .  S
C153        N154   1.354   1_455  A
N154        C155   1.354       .  A
C155        C394   1.481       .  S
C155        N156   1.359       .  A
C157        C229   1.484       .  S
C157        N158   1.362       .  A
C157        N162   1.363   1_455  A
N158        C159   1.359       .  A
C159        C350   1.480       .  S
C159        N160   1.354       .  A
N160        C161   1.354   1_455  A
C161        C482   1.481       .  S
C161        N162   1.359       .  A
C163        C207   1.484       .  S
C163        N164   1.362       .  A
C163        N168   1.362       .  A
N164        C165   1.358       .  A
C165        C449   1.482       .  S
C165        N166   1.354       .  A
N166        C167   1.355       .  A
C167        C284   1.481       .  S
C167        N168   1.359       .  A
C169        C185   1.484       .  S
C169        N170   1.363   1_565  A
C169        N174   1.362       .  A
N170        C171   1.359       .  A
C171        C405   1.481       .  S
C171        N172   1.354   1_545  A
N172        C173   1.354       .  A
C173        C328   1.481       .  S
C173        N174   1.358       .  A
C175        H176   1.111       .  S
C175        C181   1.537       .  S
C175        C180   1.541       .  S
C175        C179   1.538   1_665  S
C177        H178   1.111       .  S
C177        C183   1.536   1_545  S
C177        C182   1.535   1_655  S
C177        C184   1.536   1_545  S
C179        C182   1.371       .  D
C179        C570   1.482       .  S
C180        C183   1.379       .  D
C180        C526   1.483       .  S
C181        C184   1.377       .  D
C181        C548   1.488       .  S
C182        C218   1.480       .  S
C183        C196   1.490       .  S
C184        C240   1.481   1_655  S
C185        C186   1.408       .  A
C185        C190   1.408   1_565  A
C186        C187   1.398       .  A
C186        H199   1.083       .  S
C187        C188   1.399       .  A
C187        H200   1.084       .  S
C188        C189   1.399   1_565  A
C188        C191   1.440       .  S
C189        C190   1.399       .  A
C189        H201   1.084       .  S
C190        H202   1.083       .  S
C191        C192   1.206       .  T
C192        C193   1.440       .  S
C193        C194   1.399   1_565  A
C193        C198   1.399       .  A
C194        C195   1.398       .  A
C194        H203   1.084       .  S
C195        C196   1.405   1_545  A
C195        H204   1.078       .  S
C196        C197   1.407       .  A
C197        C198   1.398       .  A
C197        H205   1.082       .  S
C198        H206   1.083       .  S
C207        C208   1.408       .  A
C207        C212   1.408       .  A
C208        C209   1.398       .  A
C208        H221   1.083       .  S
C209        C210   1.399       .  A
C209        H222   1.084       .  S
C210        C211   1.400       .  A
C210        C213   1.440       .  S
C211        C212   1.399       .  A
C211        H223   1.084       .  S
C212        H224   1.083       .  S
C213        C214   1.206       .  T
C214        C215   1.440       .  S
C215        C216   1.400       .  A
C215        C220   1.401       .  A
C216        C217   1.398       .  A
C216        H225   1.083       .  S
C217        C218   1.402       .  A
C217        H226   1.079       .  S
C218        C219   1.404       .  A
C219        C220   1.399       .  A
C219        H227   1.083       .  S
C220        H228   1.083       .  S
C229        C230   1.408       .  A
C229        C234   1.408   1_455  A
C230        C231   1.398       .  A
C230        H243   1.083       .  S
C231        C232   1.399       .  A
C231        H244   1.084       .  S
C232        C233   1.399   1_455  A
C232        C235   1.440       .  S
C233        C234   1.399       .  A
C233        H245   1.084       .  S
C234        H246   1.083       .  S
C235        C236   1.206       .  T
C236        C237   1.440       .  S
C237        C238   1.401   1_455  A
C237        C242   1.400       .  A
C238        C239   1.399       .  A
C238        H247   1.083       .  S
C239        C240   1.403   1_655  A
C239        H248   1.083       .  S
C240        C241   1.405       .  A
C241        C242   1.397       .  A
C241        H249   1.083       .  S
C242        H250   1.083       .  S
C251        C252   1.407       .  A
C251        C256   1.406       .  A
C252        C253   1.394       .  A
C252        H265   1.083       .  S
C253        C254   1.397       .  A
C253        H266   1.084       .  S
C254        C255   1.402       .  A
C254        C257   1.439       .  S
C255        C256   1.402       .  A
C255        H267   1.083       .  S
C256        H268   1.083       .  S
C257        C258   1.206       .  T
C258        C259   1.440       .  S
C259        C260   1.399       .  A
C259        C264   1.399       .  A
C260        C261   1.400       .  A
C260        H269   1.083       .  S
C261        C262   1.408       .  A
C261        H270   1.083       .  S
C262        C263   1.408       .  A
C263        C264   1.397       .  A
C263        H271   1.083       .  S
C264        H272   1.084       .  S
C273        C274   1.409       .  A
C273        C278   1.406       .  A
C274        C275   1.397       .  A
C274        H287   1.083       .  S
C275        C276   1.398       .  A
C275        H288   1.083       .  S
C276        C277   1.400       .  A
C276        C279   1.437       .  S
C277        C278   1.397       .  A
C277        H289   1.084       .  S
C278        H290   1.083       .  S
C279        C280   1.204       .  T
C280        C281   1.437       .  S
C281        C282   1.397       .  A
C281        C286   1.401       .  A
C282        C283   1.393       .  A
C282        H291   1.084       .  S
C283        C284   1.407       .  A
C283        H292   1.083       .  S
C284        C285   1.408       .  A
C285        C286   1.402       .  A
C285        H293   1.083       .  S
C286        H294   1.083       .  S
C295        C296   1.407       .  A
C295        C300   1.408       .  A
C296        C297   1.393       .  A
C296        H309   1.083       .  S
C297        C298   1.397       .  A
C297        H310   1.084       .  S
C298        C299   1.401       .  A
C298        C301   1.435       .  S
C299        C300   1.401       .  A
C299        H311   1.083       .  S
C300        H312   1.083       .  S
C301        C302   1.204       .  T
C302        C303   1.436       .  S
C303        C304   1.399       .  A
C303        C308   1.398       .  A
C304        C305   1.396       .  A
C304        H313   1.084       .  S
C305        C306   1.407       .  A
C305        H314   1.083       .  S
C306        C307   1.409       .  A
C307        C308   1.397       .  A
C307        H315   1.083       .  S
C308        H316   1.083       .  S
C317        C318   1.409       .  A
C317        C322   1.406       .  A
C318        C319   1.396       .  A
C318        H331   1.083       .  S
C319        C320   1.397       .  A
C319        H332   1.084       .  S
C320        C321   1.401       .  A
C320        C323   1.436       .  S
C321        C322   1.399       .  A
C321        H333   1.084       .  S
C322        H334   1.083       .  S
C323        C324   1.204       .  T
C324        C325   1.436       .  S
C325        C326   1.396       .  A
C325        C330   1.401       .  A
C326        C327   1.392       .  A
C326        H335   1.084       .  S
C327        C328   1.408       .  A
C327        H336   1.083       .  S
C328        C329   1.408       .  A
C329        C330   1.402       .  A
C329        H337   1.083       .  S
C330        H338   1.083       .  S
C339        C340   1.407       .  A
C339        C344   1.408       .  A
C340        C341   1.398       .  A
C340        H353   1.083       .  S
C341        C342   1.400       .  A
C341        H354   1.084       .  S
C342        C343   1.398       .  A
C342        C345   1.437       .  S
C343        C344   1.397       .  A
C343        H355   1.083       .  S
C344        H356   1.083       .  S
C345        C346   1.204       .  T
C346        C347   1.437       .  S
C347        C348   1.401       .  A
C347        C352   1.397       .  A
C348        C349   1.401       .  A
C348        H357   1.083       .  S
C349        C350   1.407       .  A
C349        H358   1.083       .  S
C350        C351   1.408       .  A
C351        C352   1.394       .  A
C351        H359   1.083       .  S
C352        H360   1.084       .  S
C361        C362   1.409       .  A
C361        C366   1.407       .  A
C362        C363   1.398       .  A
C362        H375   1.083       .  S
C363        C364   1.398       .  A
C363        H376   1.083       .  S
C364        C365   1.399       .  A
C364        C367   1.437       .  S
C365        C366   1.397       .  A
C365        H377   1.084       .  S
C366        H378   1.083       .  S
C367        C368   1.204       .  T
C368        C369   1.436       .  S
C369        C370   1.396       .  A
C369        C374   1.401       .  A
C370        C371   1.392       .  A
C370        H379   1.084       .  S
C371        C372   1.408       .  A
C371        H380   1.083       .  S
C372        C373   1.407       .  A
C373        C374   1.402       .  A
C373        H381   1.083       .  S
C374        H382   1.083       .  S
C383        C384   1.409       .  A
C383        C388   1.406       .  A
C384        C385   1.397       .  A
C384        H397   1.083       .  S
C385        C386   1.398       .  A
C385        H398   1.083       .  S
C386        C387   1.400       .  A
C386        C389   1.437       .  S
C387        C388   1.398       .  A
C387        H399   1.084       .  S
C388        H400   1.083       .  S
C389        C390   1.204       .  T
C390        C391   1.437       .  S
C391        C392   1.401       .  A
C391        C396   1.397       .  A
C392        C393   1.401       .  A
C392        H401   1.083       .  S
C393        C394   1.407       .  A
C393        H402   1.083       .  S
C394        C395   1.408       .  A
C395        C396   1.393       .  A
C395        H403   1.083       .  S
C396        H404   1.084       .  S
C405        C406   1.407       .  A
C405        C410   1.408       .  A
C406        C407   1.401       .  A
C406        H419   1.083       .  S
C407        C408   1.401       .  A
C407        H420   1.083       .  S
C408        C409   1.396       .  A
C408        C411   1.436       .  S
C409        C410   1.393       .  A
C409        H421   1.084       .  S
C410        H422   1.083       .  S
C411        C412   1.204       .  T
C412        C413   1.437       .  S
C413        C414   1.400       .  A
C413        C418   1.398       .  A
C414        C415   1.397       .  A
C414        H423   1.084       .  S
C415        C416   1.407       .  A
C415        H424   1.083       .  S
C416        C417   1.409       .  A
C417        C418   1.397       .  A
C417        H425   1.083       .  S
C418        H426   1.083       .  S
C427        C428   1.407       .  A
C427        C432   1.408       .  A
C428        C429   1.402       .  A
C428        H441   1.083       .  S
C429        C430   1.402       .  A
C429        H442   1.083       .  S
C430        C431   1.396       .  A
C430        C433   1.438       .  S
C431        C432   1.393       .  A
C431        H443   1.084       .  S
C432        H444   1.083       .  S
C433        C434   1.205       .  T
C434        C435   1.438       .  S
C435        C436   1.398       .  A
C435        C440   1.400       .  A
C436        C437   1.398       .  A
C436        H445   1.083       .  S
C437        C438   1.409       .  A
C437        H446   1.083       .  S
C438        C439   1.407       .  A
C439        C440   1.398       .  A
C439        H447   1.083       .  S
C440        H448   1.084       .  S
C449        C450   1.408       .  A
C449        C454   1.408       .  A
C450        C451   1.394       .  A
C450        H463   1.083       .  S
C451        C452   1.397       .  A
C451        H464   1.084       .  S
C452        C453   1.400       .  A
C452        C455   1.437       .  S
C453        C454   1.401       .  A
C453        H465   1.083       .  S
C454        H466   1.083       .  S
C455        C456   1.204       .  T
C456        C457   1.437       .  S
C457        C458   1.398       .  A
C457        C462   1.400       .  A
C458        C459   1.397       .  A
C458        H467   1.084       .  S
C459        C460   1.409       .  A
C459        H468   1.083       .  S
C460        C461   1.406       .  A
C461        C462   1.398       .  A
C461        H469   1.083       .  S
C462        H470   1.084       .  S
C471        C472   1.407       .  A
C471        C476   1.409       .  A
C472        C473   1.398       .  A
C472        H485   1.083       .  S
C473        C474   1.400       .  A
C473        H486   1.084       .  S
C474        C475   1.398       .  A
C474        C477   1.438       .  S
C475        C476   1.398       .  A
C475        H487   1.084       .  S
C476        H488   1.083       .  S
C477        C478   1.205       .  T
C478        C479   1.438       .  S
C479        C480   1.401       .  A
C479        C484   1.397       .  A
C480        C481   1.401       .  A
C480        H489   1.083       .  S
C481        C482   1.407       .  A
C481        H490   1.083       .  S
C482        C483   1.408       .  A
C483        C484   1.394       .  A
C483        H491   1.083       .  S
C484        H492   1.084       .  S
C493        C494   1.406       .  A
C493        C498   1.407       .  A
C494        C495   1.401       .  A
C494        H507   1.083       .  S
C495        C496   1.401       .  A
C495        H508   1.083       .  S
C496        C497   1.397       .  A
C496        C499   1.436       .  S
C497        C498   1.393       .  A
C497        H509   1.084       .  S
C498        H510   1.083       .  S
C499        C500   1.204       .  T
C500        C501   1.436       .  S
C501        C502   1.398       .  A
C501        C506   1.400       .  A
C502        C503   1.397       .  A
C502        H511   1.083       .  S
C503        C504   1.409       .  A
C503        H512   1.083       .  S
C504        C505   1.406       .  A
C505        C506   1.397       .  A
C505        H513   1.083       .  S
C506        H514   1.084       .  S
C515        C516   1.408   1_565  A
C515        C520   1.409       .  A
C516        C517   1.400       .  A
C516        H529   1.083       .  S
C517        C518   1.400   1_545  A
C517        H530   1.083       .  S
C518        C519   1.399       .  A
C518        C521   1.443       .  S
C519        C520   1.399       .  A
C519        H531   1.084       .  S
C520        H532   1.083       .  S
C521        C522   1.208       .  T
C522        C523   1.442       .  S
C523        C524   1.402       .  A
C523        C528   1.401   1_565  A
C524        C525   1.400       .  A
C524        H533   1.083       .  S
C525        C526   1.404       .  A
C525        H534   1.083       .  S
C526        C527   1.405   1_565  A
C527        C528   1.398       .  A
C527        H535   1.083       .  S
C528        H536   1.083       .  S
C537        C538   1.408   1_655  A
C537        C542   1.408       .  A
C538        C539   1.399       .  A
C538        H551   1.083       .  S
C539        C540   1.400   1_455  A
C539        H552   1.084       .  S
C540        C541   1.399       .  A
C540        C543   1.439       .  S
C541        C542   1.398       .  A
C541        H553   1.084       .  S
C542        H554   1.083       .  S
C543        C544   1.206       .  T
C544        C545   1.439       .  S
C545        C546   1.400       .  A
C545        C550   1.399   1_655  A
C546        C547   1.398       .  A
C546        H555   1.083       .  S
C547        C548   1.407       .  A
C547        H556   1.083       .  S
C548        C549   1.403   1_655  A
C549        C550   1.398       .  A
C549        H557   1.078       .  S
C550        H558   1.083       .  S
C559        C560   1.409       .  A
C559        C564   1.408       .  A
C560        C561   1.399       .  A
C560        H573   1.083       .  S
C561        C562   1.399       .  A
C561        H574   1.084       .  S
C562        C563   1.400       .  A
C562        C565   1.443       .  S
C563        C564   1.400       .  A
C563        H575   1.083       .  S
C564        H576   1.083       .  S
C565        C566   1.208       .  T
C566        C567   1.443       .  S
C567        C568   1.400       .  A
C567        C572   1.402       .  A
C568        C569   1.399       .  A
C568        H577   1.083       .  S
C569        C570   1.402       .  A
C569        H578   1.079       .  S
C570        C571   1.404       .  A
C571        C572   1.400       .  A
C571        H579   1.083       .  S
C572        H580   1.083       .  S
C581        C582   1.408       .  A
C581        C586   1.407       .  A
C582        C583   1.399       .  A
C582        H595   1.083       .  S
C583        C584   1.399       .  A
C583        H596   1.083       .  S
C584        C585   1.400       .  A
C584        C587   1.439       .  S
C585        C586   1.398       .  A
C585        H597   1.084       .  S
C586        H598   1.083       .  S
C587        C588   1.206       .  T
C588        C589   1.439       .  S
C589        C590   1.397       .  A
C589        C594   1.402       .  A
C590        C591   1.394       .  A
C590        H599   1.084       .  S
C591        C592   1.408       .  A
C591        H600   1.083       .  S
C592        C593   1.406       .  A
C593        C594   1.402       .  A
C593        H601   1.083       .  S
C594        H602   1.083       .  S
C603        C604   1.409       .  A
C603        C608   1.406       .  A
C604        C605   1.397       .  A
C604        H617   1.083       .  S
C605        C606   1.397       .  A
C605        H618   1.084       .  S
C606        C607   1.400       .  A
C606        C609   1.437       .  S
C607        C608   1.398       .  A
C607        H619   1.084       .  S
C608        H620   1.083       .  S
C609        C610   1.204       .  T
C610        C611   1.437       .  S
C611        C612   1.397       .  A
C611        C616   1.401       .  A
C612        C613   1.394       .  A
C612        H621   1.084       .  S
C613        C614   1.408       .  A
C613        H622   1.083       .  S
C614        C615   1.407       .  A
C615        C616   1.401       .  A
C615        H623   1.083       .  S
C616        H624   1.083       .  S
C625        C626   1.408       .  A
C625        C630   1.407       .  A
C626        C627   1.400       .  A
C626        H639   1.083       .  S
C627        C628   1.400       .  A
C627        H640   1.083       .  S
C628        C629   1.397       .  A
C628        C631   1.436       .  S
C629        C630   1.393       .  A
C629        H641   1.084       .  S
C630        H642   1.083       .  S
C631        C632   1.204       .  T
C632        C633   1.436       .  S
C633        C634   1.399       .  A
C633        C638   1.398       .  A
C634        C635   1.397       .  A
C634        H643   1.084       .  S
C635        C636   1.407       .  A
C635        H644   1.083       .  S
C636        C637   1.408       .  A
C637        C638   1.397       .  A
C637        H645   1.083       .  S
C638        H646   1.083       .  S
C647        C648   1.408       .  A
C647        C652   1.407       .  A
C648        C649   1.394       .  A
C648        H661   1.083       .  S
C649        C650   1.397       .  A
C649        H662   1.084       .  S
C650        C651   1.401       .  A
C650        C653   1.437       .  S
C651        C652   1.401       .  A
C651        H663   1.083       .  S
C652        H664   1.083       .  S
C653        C654   1.205       .  T
C654        C655   1.437       .  S
C655        C656   1.398       .  A
C655        C660   1.400       .  A
C656        C657   1.398       .  A
C656        H665   1.083       .  S
C657        C658   1.409       .  A
C657        H666   1.083       .  S
C658        C659   1.406       .  A
C659        C660   1.397       .  A
C659        H667   1.083       .  S
C660        H668   1.084       .  S
C669        C670   1.408       .  A
C669        C674   1.408       .  A
C670        C671   1.394       .  A
C670        H683   1.083       .  S
C671        C672   1.397       .  A
C671        H684   1.084       .  S
C672        C673   1.401       .  A
C672        C675   1.438       .  S
C673        C674   1.401       .  A
C673        H685   1.083       .  S
C674        H686   1.083       .  S
C675        C676   1.205       .  T
C676        C677   1.439       .  S
C677        C678   1.399       .  A
C677        C682   1.399       .  A
C678        C679   1.399       .  A
C678        H687   1.083       .  S
C679        C680   1.409       .  A
C679        H688   1.083       .  S
C680        C681   1.407       .  A
C681        C682   1.397       .  A
C681        H689   1.083       .  S
C682        H690   1.084       .  S
C691        C692   1.408       .  A
C691        C696   1.407       .  A
C692        C693   1.402       .  A
C692        H705   1.083       .  S
C693        C694   1.401       .  A
C693        H706   1.083       .  S
C694        C695   1.397       .  A
C694        C697   1.438       .  S
C695        C696   1.394       .  A
C695        H707   1.084       .  S
C696        H708   1.083       .  S
C697        C698   1.205       .  T
C698        C699   1.438       .  S
C699        C700   1.399       .  A
C699        C704   1.399       .  A
C700        C701   1.396       .  A
C700        H709   1.084       .  S
C701        C702   1.406       .  A
C701        H710   1.083       .  S
C702        C703   1.410       .  A
C703        C704   1.400       .  A
C703        H711   1.083       .  S
C704        H712   1.083       .  S
C713        C714   1.409       .  A
C713        C718   1.406       .  A
C714        C715   1.397       .  A
C714        H727   1.083       .  S
C715        C716   1.397       .  A
C715        H728   1.083       .  S
C716        C717   1.400       .  A
C716        C719   1.436       .  S
C717        C718   1.397       .  A
C717        H729   1.084       .  S
C718        H730   1.083       .  S
C719        C720   1.204       .  T
C720        C721   1.436       .  S
C721        C722   1.401       .  A
C721        C726   1.397       .  A
C722        C723   1.401       .  A
C722        H731   1.083       .  S
C723        C724   1.407       .  A
C723        H732   1.083       .  S
C724        C725   1.406       .  A
C725        C726   1.393       .  A
C725        H733   1.083       .  S
C726        H734   1.084       .  S
C735        C736   1.407       .  A
C735        C740   1.407       .  A
C736        C737   1.394       .  A
C736        H749   1.083       .  S
C737        C738   1.397       .  A
C737        H750   1.084       .  S
C738        C739   1.402       .  A
C738        C741   1.439       .  S
C739        C740   1.403       .  A
C739        H751   1.083       .  S
C740        H752   1.083       .  S
C741        C742   1.206       .  T
C742        C743   1.439       .  S
C743        C744   1.398       .  A
C743        C748   1.400       .  A
C744        C745   1.398       .  A
C744        H753   1.083       .  S
C745        C746   1.409       .  A
C745        H754   1.083       .  S
C746        C747   1.406       .  A
C747        C748   1.398       .  A
C747        H755   1.083       .  S
C748        H756   1.084       .  S
C757        C758   1.407       .  A
C757        C762   1.409       .  A
C758        C759   1.398       .  A
C758        H771   1.083       .  S
C759        C760   1.400       .  A
C759        H772   1.084       .  S
C760        C761   1.399       .  A
C760        C763   1.440       .  S
C761        C762   1.399       .  A
C761        H773   1.083       .  S
C762        H774   1.083       .  S
C763        C764   1.206       .  T
C764        C765   1.439       .  S
C765        C766   1.397       .  A
C765        C770   1.401       .  A
C766        C767   1.394       .  A
C766        H775   1.084       .  S
C767        C768   1.408       .  A
C767        H776   1.083       .  S
C768        C769   1.409       .  A
C769        C770   1.402       .  A
C769        H777   1.083       .  S
C770        H778   1.083       .  S
C779        C780   1.406       .  A
C779        C784   1.409       .  A
C780        C781   1.397       .  A
C780        H793   1.083       .  S
C781        C782   1.399       .  A
C781        H794   1.084       .  S
C782        C783   1.398       .  A
C782        C785   1.437       .  S
C783        C784   1.398       .  A
C783        H795   1.083       .  S
C784        H796   1.083       .  S
C785        C786   1.204       .  T
C786        C787   1.436       .  S
C787        C788   1.401       .  A
C787        C792   1.396       .  A
C788        C789   1.401       .  A
C788        H797   1.083       .  S
C789        C790   1.407       .  A
C789        H798   1.083       .  S
C790        C791   1.408       .  A
C791        C792   1.393       .  A
C791        H799   1.083       .  S
C792        H800   1.084       .  S
C801        C802   1.407       .  A
C801        C806   1.409       .  A
C802        C803   1.398       .  A
C802        H815   1.083       .  S
C803        C804   1.400       .  A
C803        H816   1.084       .  S
C804        C805   1.398       .  A
C804        C807   1.437       .  S
C805        C806   1.397       .  A
C805        H817   1.084       .  S
C806        H818   1.083       .  S
C807        C808   1.204       .  T
C808        C809   1.437       .  S
C809        C810   1.401       .  A
C809        C814   1.397       .  A
C810        C811   1.401       .  A
C810        H819   1.083       .  S
C811        C812   1.407       .  A
C811        H820   1.083       .  S
C812        C813   1.408       .  A
C813        C814   1.394       .  A
C813        H821   1.083       .  S
C814        H822   1.084       .  S
C823        C824   1.409       .  A
C823        C828   1.407       .  A
C824        C825   1.399       .  A
C824        H837   1.083       .  S
C825        C826   1.399       .  A
C825        H838   1.084       .  S
C826        C827   1.400       .  A
C826        C829   1.440       .  S
C827        C828   1.398       .  A
C827        H839   1.084       .  S
C828        H840   1.083       .  S
C829        C830   1.206       .  T
C830        C831   1.440       .  S
C831        C832   1.397       .  A
C831        C836   1.401       .  A
C832        C833   1.395       .  A
C832        H841   1.084       .  S
C833        C834   1.409       .  A
C833        H842   1.083       .  S
C834        C835   1.408       .  A
C835        C836   1.402       .  A
C835        H843   1.083       .  S
C836        H844   1.083       .  S
C845        C846   1.407       .  A
C845        C850   1.403       .  A
C846        C847   1.398       .  A
C846        H859   1.083       .  S
C847        C848   1.400       .  A
C847        H860   1.083       .  S
C848        C849   1.399       .  A
C848        C851   1.439       .  S
C849        C850   1.397       .  A
C849        H861   1.083       .  S
C850        H862   1.078       .  S
C851        C852   1.205       .  T
C852        C853   1.439       .  S
C853        C854   1.399       .  A
C853        C858   1.399       .  A
C854        C855   1.398       .  A
C854        H863   1.084       .  S
C855        C856   1.408       .  A
C855        H864   1.083       .  S
C856        C857   1.408       .  A
C857        C858   1.398       .  A
C857        H865   1.083       .  S
C858        H866   1.084       .  S
C867        C868   1.406       .  A
C867        C872   1.404   1_455  A
C868        C869   1.398       .  A
C868        H881   1.083       .  S
C869        C870   1.400       .  A
C869        H882   1.083       .  S
C870        C871   1.401   1_455  A
C870        C873   1.441       .  S
C871        C872   1.400       .  A
C871        H883   1.083       .  S
C872        H884   1.083       .  S
C873        C874   1.207       .  T
C874        C875   1.441       .  S
C875        C876   1.399   1_455  A
C875        C880   1.400       .  A
C876        C877   1.399       .  A
C876        H885   1.084       .  S
C877        C878   1.409   1_655  A
C877        H886   1.083       .  S
C878        C879   1.408       .  A
C879        C880   1.399       .  A
C879        H887   1.083       .  S
C880        H888   1.083       .  S
C889        C890   1.408       .  A
C889        C894   1.408   1_545  A
C890        C891   1.397       .  A
C890        H903   1.083       .  S
C891        C892   1.399       .  A
C891        H904   1.084       .  S
C892        C893   1.398   1_545  A
C892        C895   1.436       .  S
C893        C894   1.397       .  A
C893        H905   1.084       .  S
C894        H906   1.083       .  S
C895        C896   1.204       .  T
C896        C897   1.436       .  S
C897        C898   1.399   1_545  A
C897        C902   1.399       .  A
C898        C899   1.397       .  A
C898        H907   1.083       .  S
C899        C900   1.402       .  A
C899        H908   1.078       .  S
C900        C901   1.405   1_565  A
C901        C902   1.396       .  A
C901        H909   1.083       .  S
C902        H910   1.083       .  S
C911        C912   1.403       .  A
C911        C916   1.405       .  A
C912        C913   1.400       .  A
C912        H925   1.083       .  S
C913        C914   1.401       .  A
C913        H926   1.083       .  S
C914        C915   1.400       .  A
C914        C917   1.441       .  S
C915        C916   1.398       .  A
C915        H927   1.083       .  S
C916        H928   1.083       .  S
C917        C918   1.207       .  T
C918        C919   1.441       .  S
C919        C920   1.399       .  A
C919        C924   1.400       .  A
C920        C921   1.398       .  A
C920        H929   1.084       .  S
C921        C922   1.409       .  A
C921        H930   1.083       .  S
C922        C923   1.408       .  A
C923        C924   1.399       .  A
C923        H931   1.083       .  S
C924        H932   1.083       .  S
C933        C934   1.408   1_655  A
C933        C938   1.409       .  A
C934        C935   1.398       .  A
C934        H947   1.083       .  S
C935        C936   1.399   1_455  A
C935        H948   1.084       .  S
C936        C937   1.399       .  A
C936        C939   1.440       .  S
C937        C938   1.399       .  A
C937        H949   1.084       .  S
C938        H950   1.083       .  S
C939        C940   1.206       .  T
C940        C941   1.440       .  S
C941        C942   1.400       .  A
C941        C946   1.400   1_655  A
C942        C943   1.398       .  A
C942        H951   1.083       .  S
C943        C944   1.407       .  A
C943        H952   1.083       .  S
C944        C945   1.404   1_655  A
C945        C946   1.398       .  A
C945        H953   1.080       .  S
C946        H954   1.083       .  S
C955        C956   1.409   1_545  A
C955        C960   1.408       .  A
C956        C957   1.398       .  A
C956        H969   1.083       .  S
C957        C958   1.399   1_565  A
C957        H970   1.084       .  S
C958        C959   1.400       .  A
C958        C961   1.442   1_545  S
C959        C960   1.400       .  A
C959        H971   1.083       .  S
C960        H972   1.083       .  S
C961        C962   1.207       .  T
C962        C963   1.441       .  S
C963        C964   1.401   1_565  A
C963        C968   1.401       .  A
C964        C965   1.399       .  A
C964        H973   1.083       .  S
C965        C966   1.402   1_545  A
C965        H974   1.080       .  S
C966        C967   1.405       .  A
C967        C968   1.399       .  A
C967        H975   1.083       .  S
C968        H976   1.083       .  S
