geometry optimzed in LAMMPS
_audit_creation_date              2020-11-30 
_audit_creation_method            'lammps2cif' 
_symmetry_space_group_name_H-M    'P1' 
_symmetry_Int_Tables_number       1 
_symmetry_cell_setting            triclinic 
loop_ 
_symmetry_equiv_pos_as_xyz 
  x,y,z 
_cell_length_a                    52.07753794 
_cell_length_b                    51.977419220724535 
_cell_length_c                    30.11994695393796 
_cell_angle_alpha                 89.86174454008523 
_cell_angle_beta                  89.87325332455814 
_cell_angle_gamma                 120.17033837048474 
loop_ 
_atom_site_label 
_atom_site_type_symbol 
_atom_site_fract_x 
_atom_site_fract_y 
_atom_site_fract_z 
_atom_site_charge 
C1          C  0.21497729  0.23043097  0.28925681     0.79800
N2          N  0.23894465  0.25174764  0.31119955    -0.78500
C3          C  0.26014159  0.27630388  0.28954805     0.82300
N4          N  0.25735814  0.27892469  0.24508681    -0.78400
C5          C  0.23356879  0.25742999  0.22257292     0.82300
N6          N  0.21237045  0.23330208  0.24502708    -0.80200
C7          C  0.21634888  0.22769926  0.82250976     0.79800
N8          N  0.21297669  0.23116977  0.86638641    -0.78500
C9          C  0.23432174  0.25507816  0.88874982     0.82300
N10         N  0.25890843  0.27581368  0.86648828    -0.78400
C11         C  0.26248416  0.27260659  0.82248413     0.82300
N12         N  0.24116681  0.24827453  0.80089745    -0.80200
C13         C  0.23792383  0.45411109  0.28769089     0.79800
N14         N  0.21675727  0.45633892  0.31078507    -0.78500
C15         C  0.19227594  0.45360811  0.29039833     0.82300
N16         N  0.18946809  0.44924402  0.24573749    -0.78400
C17         C  0.21066431  0.44722507  0.22174298     0.82300
N18         N  0.23479159  0.44944405  0.24311584    -0.80200
C19         C  0.24008479  0.46075604  0.82079854     0.79800
N20         N  0.22020509  0.46572635  0.79890368    -0.78500
C21         C  0.19574378  0.46280772  0.81988843     0.82300
N22         N  0.19167126  0.45548037  0.86373088    -0.78400
C23         C  0.21162421  0.45089291  0.88652349     0.82300
N24         N  0.23569012  0.45327509  0.86462098    -0.80200
C25         C  0.50244139  0.24474189  0.28722577     0.79800
N26         N  0.50909417  0.24830126  0.24302472    -0.78500
C27         C  0.51098035  0.22664845  0.22011921     0.82300
N28         N  0.50658480  0.20183135  0.24205373    -0.78400
C29         C  0.50002506  0.19811055  0.28599560     0.82300
N30         N  0.49773963  0.21955700  0.30817707    -0.80200
C31         C  0.50148110  0.24455997  0.82168127     0.79800
N32         N  0.50924723  0.24789620  0.86516286    -0.78500
C33         C  0.51322459  0.22699117  0.88641697     0.82300
N34         N  0.50993114  0.20298171  0.86329374    -0.78400
C35         C  0.50244117  0.19967088  0.81959750     0.82300
N36         N  0.49795410  0.22042891  0.79936307    -0.80200
O37         O  0.41959096  0.99975400  0.50551972    -0.88600
C38         C  0.07240290  0.06730639  0.61899797     1.11400
O39         O  0.45715969  0.47654579  0.55410572    -1.36400
O40         O  0.05130837  0.06995232  0.50356973    -0.90100
O41         O  0.39715175  0.45003356  0.50486086    -0.90700
O42         O  0.45786549  0.44617344  0.46011247    -0.79600
O43         O  0.48572017  0.03501817  0.51229049    -1.01700
C44         C  0.04355780  0.47816298  0.47403142     1.21500
O45         O  0.48909470  0.44668603  0.55482774    -1.36500
Mn46       Mn  0.48825727  0.47733117  0.60313877     1.82100
O47         O  0.02040802  0.47745347  0.46048547    -0.78600
O48         O  0.07858296  0.04775811  0.50523467    -0.88000
C49         C  0.04282939  0.47882130  0.63670345     1.12600
C50         C  0.07244843  0.06668020  0.48911677     1.07300
O51         O  0.45712871  0.44607651  0.64862744    -0.79600
O52         O  0.01914088  0.01031672  0.55452107    -1.33300
O53         O  0.43097390  0.41831227  0.59622514    -0.98800
C54         C  0.49083874  0.39196587  0.49074209     1.06000
Mn55       Mn  0.06194906  0.01511642  0.55498663     1.48600
O56         O  0.46580947  0.38727003  0.50503970    -0.88000
Mn57       Mn  0.41563649  0.43625102  0.55463328     1.49600
O58         O  0.42013959  0.49978764  0.60275543    -0.91900
C59         C  0.48624608  0.03096627  0.47253976     1.19200
C60         C  0.40064681  0.47468753  0.61856020     1.11300
Mn61       Mn  0.48880721  0.47734756  0.50575610     1.81000
O62         O  0.04688043  0.47882408  0.59688509    -0.97000
Mn63       Mn  0.45257215  0.01545603  0.55438394     1.49300
C64         C  0.40080010  0.47440418  0.48925322     1.07800
Mn65       Mn  0.02914238  0.44522880  0.55552897     1.49900
C66         C  0.48970218  0.39149079  0.61925827     1.10700
O67         O  0.43137232  0.41886523  0.51295035    -1.02800
O68         O  0.07835892  0.04780667  0.60479477    -0.92500
C69         C  0.43484583  0.42312920  0.47304706     1.22000
O70         O  0.04716224  0.47879274  0.51401439    -1.03200
O71         O  0.05149209  0.07043865  0.60322802    -0.90600
O72         O  0.01463549  0.41254702  0.60554014    -0.90200
O73         O  0.39722996  0.45008285  0.60459722    -0.90200
Mn74       Mn  0.01919539  0.05116825  0.55370325     1.47900
O75         O  0.01926053  0.47762961  0.64927864    -0.78700
C76         C  0.43459945  0.42259611  0.63608382     1.15000
O77         O  0.48843247  0.00911779  0.46038944    -0.77400
O78         O  0.48794036  0.00911199  0.64858017    -0.77100
Mn79       Mn  0.45015350  0.40427126  0.55441077     1.51100
O80         O  0.01550692  0.41261525  0.50562883    -0.89400
O81         O  0.48591571  0.03467169  0.59541365    -0.96900
O82         O  0.46500221  0.38656703  0.60356455    -0.91900
C83         C  0.48633934  0.03115911  0.63530883     1.12800
C84         C  0.48538652  0.05308680  0.66534265    -0.01700
C85         C  0.47426487  0.07074115  0.64875454    -0.09700
C86         C  0.47562630  0.09385313  0.67355081    -0.18600
C87         C  0.48855034  0.10049178  0.71615532     0.03800
C88         C  0.49871797  0.08180295  0.73391623     0.18000
C89         C  0.99702545  0.05823727  0.70844339    -0.20000
C90         C  0.01088625  0.08713224  0.77662320    -0.21300
C91         C  0.01322062  0.11063746  0.80196626    -0.19800
C92         C  0.50394552  0.12975798  0.78495624     0.19400
C93         C  0.49176169  0.12507401  0.74156453     0.01500
C94         C  0.48377397  0.14553476  0.72503767    -0.14500
C95         C  0.48726006  0.16929305  0.75061500    -0.12200
C96         C  0.49878529  0.17375454  0.79370401     0.01100
C97         C  0.50708336  0.15378722  0.81075859    -0.24400
H98         H  0.46466954  0.06689408  0.61584433     0.09100
H99         H  0.46639339  0.10609609  0.65814925     0.12600
H100        H  0.00564324  0.04462801  0.72151632     0.11400
H101        H  0.01864945  0.07302100  0.79053873     0.12600
H102        H  0.02266070  0.11408250  0.83493447     0.11600
H103        H  0.47511126  0.14417152  0.69217492     0.08700
H104        H  0.48078514  0.18429740  0.73622613     0.11900
H105        H  0.01638160  0.15715584  0.84382165     0.13800
C106        C  0.49682289  0.26672472  0.79816319    -0.01700
C107        C  0.47151115  0.25729773  0.77203070    -0.09700
C108        C  0.46812682  0.27749861  0.74566172    -0.18600
C109        C  0.49060484  0.30782518  0.74356268     0.03800
C110        C  0.01624496  0.31722527  0.77034793     0.18000
C111        C  0.01877258  0.29681260  0.79812442    -0.20000
C112        C  0.03971128  0.34666971  0.76798720    -0.21300
C113        C  0.03869542  0.36681926  0.73858302    -0.19800
C114        C  0.01386022  0.35824701  0.71159035     0.19400
C115        C  0.48908457  0.32886844  0.71463698     0.01500
C116        C  0.46403135  0.32175451  0.68811896    -0.14500
C117        C  0.46413196  0.34246393  0.65848408    -0.12200
C118        C  0.48918264  0.37090078  0.65386740     0.01100
C119        C  0.01384038  0.37878171  0.68107210    -0.24400
H120        H  0.45438487  0.23402507  0.77160882     0.09100
H121        H  0.44817682  0.26843442  0.72610219     0.12600
H122        H  0.03861486  0.30398862  0.81785500     0.11400
H123        H  0.05935373  0.35397730  0.78820311     0.12600
H124        H  0.05756655  0.38923700  0.73675295     0.11600
H125        H  0.44398831  0.30035722  0.68941582     0.08700
H126        H  0.44465913  0.33580942  0.63816457     0.11900
H127        H  0.03316343  0.40087973  0.67830899     0.13800
C128        C  0.48523129  0.05216028  0.44076963    -0.01700
C129        C  0.49658355  0.05573052  0.39759240    -0.09700
C130        C  0.49780577  0.07788644  0.36952751    -0.18600
C131        C  0.48752248  0.09709013  0.38398950     0.03800
C132        C  0.97520586  0.09256024  0.42741724     0.18000
C133        C  0.97413218  0.07033895  0.45501382    -0.20000
C134        C  0.96463408  0.11068859  0.44371958    -0.21300
C135        C  0.96685811  0.13401382  0.41835290    -0.19800
C136        C  0.97952959  0.13967156  0.37593409     0.19400
C137        C  0.48954972  0.12101945  0.35763115     0.01500
C138        C  0.50153140  0.12754049  0.31413447    -0.14500
C139        C  0.50433628  0.15210415  0.29062459    -0.12200
C140        C  0.49545833  0.17103238  0.30966016     0.01100
C141        C  0.98263120  0.16428563  0.35208570    -0.24400
H142        H  0.50537303  0.04197131  0.38595774     0.09100
H143        H  0.50740677  0.07980876  0.33709858     0.12600
H144        H  0.96502823  0.06752055  0.48827464     0.11400
H145        H  0.95506375  0.10715000  0.47672327     0.12600
H146        H  0.95895096  0.14799303  0.43228680     0.11600
H147        H  0.50916952  0.11424947  0.29757031     0.08700
H148        H  0.51408857  0.15661080  0.25770473     0.11900
H149        H  0.97520205  0.17841591  0.36695107     0.13800
C150        C  0.49093582  0.37131649  0.45679842    -0.01700
C151        C  0.46701739  0.34206512  0.45512695    -0.09700
C152        C  0.46734860  0.32125662  0.42636389    -0.18600
C153        C  0.49163117  0.32906471  0.39749491     0.03800
C154        C  0.01509042  0.35919573  0.39715392     0.18000
C155        C  0.01489022  0.37984617  0.42734851    -0.20000
C156        C  0.03858369  0.36836850  0.36682791    -0.21300
C157        C  0.03933559  0.34820689  0.33707765    -0.19800
C158        C  0.01726658  0.31806331  0.33809381     0.19400
C159        C  0.49339064  0.30802033  0.36898883     0.01500
C160        C  0.47281849  0.27714920  0.37116245    -0.14500
C161        C  0.47583229  0.25715985  0.34396626    -0.12200
C162        C  0.49891354  0.26706663  0.31286384     0.01100
C163        C  0.01937164  0.29766676  0.30950508    -0.24400
H164        H  0.44814065  0.33489068  0.47717574     0.09100
H165        H  0.44806885  0.29927748  0.42723366     0.12600
H166        H  0.03331135  0.40254643  0.42783439     0.11400
H167        H  0.05646001  0.39132251  0.36600284     0.12600
H168        H  0.05774709  0.35610613  0.31391760     0.11600
H169        H  0.45472992  0.26757133  0.39466840     0.08700
H170        H  0.45997655  0.23360623  0.34746294     0.11900
H171        H  0.03770338  0.30539938  0.28620338     0.13800
C172        C  0.51607694  0.22876878  0.17125252    -0.01700
C173        C  0.51722307  0.20570520  0.14885130    -0.09700
C174        C  0.51976835  0.20590546  0.10274779    -0.18600
C175        C  0.52118161  0.22930891  0.07694605     0.03800
C176        C  0.02087601  0.25313983  0.09965743     0.18000
C177        C  0.01843928  0.25272845  0.14630301    -0.20000
C178        C  0.02230443  0.27690342  0.07560146    -0.21300
C179        C  0.02295772  0.27702884  0.02941735    -0.19800
C180        C  0.52223500  0.25340173  0.00608536     0.19400
C181        C  0.52198586  0.22949346  0.02944721     0.01500
C182        C  0.52172764  0.20644134  0.00417053    -0.14500
C183        C  0.52004231  0.20632038  0.95789210    -0.12200
C184        C  0.51876113  0.22917253  0.93504360     0.01100
C185        C  0.52080101  0.25312331  0.95945938    -0.24400
H186        H  0.51564799  0.18692414  0.16692811     0.09100
H187        H  0.52005773  0.18711191  0.08835299     0.12600
H188        H  0.01768555  0.27077856  0.16303551     0.11400
H189        H  0.02232544  0.29526566  0.09260703     0.12600
H190        H  0.02342576  0.29547206  0.01181338     0.11600
H191        H  0.52218412  0.18783671  0.01911055     0.08700
H192        H  0.51893161  0.18771427  0.94007198     0.11900
H193        H  0.02024300  0.27120708  0.94230844     0.13800
C194        C  0.38021707  0.47389951  0.65372813    -0.01700
C195        C  0.36589558  0.44947164  0.68265798    -0.09700
C196        C  0.34480622  0.44753067  0.71346972    -0.18600
C197        C  0.33668788  0.46972762  0.71553863     0.03800
C198        C  0.35132222  0.49444877  0.68608312     0.18000
C199        C  0.37325764  0.49663343  0.65645914    -0.20000
C200        C  0.34327450  0.51639439  0.68520223    -0.21300
C201        C  0.32027342  0.51386050  0.71181120    -0.19800
C202        C  0.30529200  0.48977334  0.74098399     0.19400
C203        C  0.31388293  0.46783890  0.74446699     0.01500
C204        C  0.29900550  0.44491546  0.77641251    -0.14500
C205        C  0.27583249  0.44327332  0.80237107    -0.12200
C206        C  0.26639068  0.46397927  0.79672814     0.01100
C207        C  0.28146665  0.48734199  0.76632892    -0.24400
H208        H  0.37079206  0.43155941  0.68115377     0.09100
H209        H  0.33451290  0.42791148  0.73416812     0.12600
H210        H  0.38390268  0.51544453  0.63387360     0.11400
H211        H  0.35430904  0.53527162  0.66284074     0.12600
H212        H  0.31406859  0.53083873  0.70941195     0.11600
H213        H  0.30481349  0.42798870  0.78210056     0.08700
H214        H  0.26459272  0.42515997  0.82593000     0.11900
H215        H  0.27458150  0.50374897  0.76241423     0.13800
C216        C  0.17402846  0.46789452  0.79494352    -0.01700
C217        C  0.18225603  0.48310973  0.75425521    -0.09700
C218        C  0.16211334  0.48746346  0.72953940    -0.18600
C219        C  0.13257570  0.47635165  0.74437322     0.03800
C220        C  0.12340235  0.95963642  0.78513172     0.18000
C221        C  0.14378881  0.95541455  0.81053722    -0.20000
C222        C  0.09541701  0.95164913  0.80280440    -0.21300
C223        C  0.07470426  0.95498669  0.77783454    -0.19800
C224        C  0.08164825  0.96707107  0.73488746     0.19400
C225        C  0.11091620  0.47931173  0.71915346     0.01500
C226        C  0.11762053  0.49468183  0.67820696    -0.14500
C227        C  0.09546646  0.49504187  0.65288868    -0.12200
C228        C  0.06588979  0.48071235  0.66752961     0.01100
C229        C  0.06013735  0.96963253  0.70964480    -0.24400
H230        H  0.20452832  0.49179855  0.74124298     0.09100
H231        H  0.17029910  0.49916993  0.69852814     0.12600
H232        H  0.13785258  0.94646194  0.84392069     0.11400
H233        H  0.08931850  0.94231264  0.83594756     0.12600
H234        H  0.05308239  0.94803073  0.79221831     0.11600
H235        H  0.13970087  0.50633322  0.66437269     0.08700
H236        H  0.10152543  0.50635364  0.62104917     0.11900
H237        H  0.03804129  0.96157437  0.72303935     0.13800
C238        C  0.26459979  0.45820634  0.31135145    -0.01700
C239        C  0.27491793  0.43818421  0.30614188    -0.09700
C240        C  0.29837115  0.44069102  0.33221642    -0.18600
C241        C  0.31261001  0.46382138  0.36378690     0.03800
C242        C  0.30300338  0.48498282  0.36688585     0.18000
C243        C  0.27894098  0.48166909  0.34147753    -0.20000
C244        C  0.31721467  0.50919777  0.39572290    -0.21300
C245        C  0.34054144  0.51269231  0.42225826    -0.19800
C246        C  0.34970179  0.49158744  0.42165566     0.19400
C247        C  0.33576633  0.46668449  0.39267162     0.01500
C248        C  0.34492855  0.44529086  0.39513251    -0.14500
C249        C  0.36638866  0.44819104  0.42579420    -0.12200
C250        C  0.38011950  0.47285163  0.45410253     0.01100
C251        C  0.37206880  0.49478139  0.45108102    -0.24400
H252        H  0.26415716  0.41995262  0.28289438     0.09100
H253        H  0.30491105  0.42427455  0.32691608     0.12600
H254        H  0.27125653  0.49746607  0.34514489     0.11400
H255        H  0.31018026  0.52555959  0.39785865     0.12600
H256        H  0.35098804  0.53166752  0.44429984     0.11600
H257        H  0.33517823  0.42556229  0.37488777     0.08700
H258        H  0.37203453  0.43081951  0.42771138     0.11900
H259        H  0.38217046  0.51367947  0.47333984     0.13800
C260        C  0.06581230  0.47693454  0.44447271    -0.02400
C261        C  0.09354843  0.48452615  0.46241473    -0.09700
C262        C  0.11431903  0.48096931  0.43828190    -0.18600
C263        C  0.10819878  0.46945888  0.39477908     0.03800
C264        C  0.08062802  0.46291393  0.37556994     0.18000
C265        C  0.05961464  0.46657658  0.40054004    -0.20000
C266        C  0.07430053  0.45263463  0.33173821    -0.21300
C267        C  0.09485951  0.44905781  0.30657827    -0.19800
C268        C  0.12202987  0.45497143  0.32488465     0.19400
C269        C  0.12870894  0.46461894  0.36963369     0.01500
C270        C  0.15556207  0.46875354  0.38757857    -0.14500
C271        C  0.17550932  0.46478648  0.36179961    -0.12200
C272        C  0.16970952  0.45652891  0.31705876     0.01100
C273        C  0.14261535  0.45131399  0.29888666    -0.24400
H274        H  0.09924693  0.49306248  0.49592195     0.09100
H275        H  0.13506085  0.48765928  0.45473775     0.12600
H276        H  0.03827646  0.46067746  0.38623353     0.11400
H277        H  0.05339574  0.44753924  0.31667582     0.12600
H278        H  0.08936816  0.44140569  0.27263449     0.11600
H279        H  0.16180931  0.47480480  0.42166622     0.08700
H280        H  0.19586244  0.46854913  0.37726418     0.11900
H281        H  0.13748995  0.44438389  0.26458515     0.13800
C282        C  0.20823371  0.44560432  0.93544845    -0.01700
C283        C  0.18484610  0.44580968  0.95837449    -0.09700
C284        C  0.18304848  0.44397750  0.00470167    -0.18600
C285        C  0.20478643  0.44195570  0.03010177     0.03800
C286        C  0.22770845  0.44035148  0.00675252     0.18000
C287        C  0.22918976  0.44210214  0.96003050    -0.20000
C288        C  0.24946883  0.43773512  0.03022552    -0.21300
C289        C  0.24949305  0.43753984  0.07643351    -0.19800
C290        C  0.22782211  0.44006633  0.10047563     0.19400
C291        C  0.20495793  0.44201657  0.07771144     0.01500
C292        C  0.18370591  0.44463221  0.10365292    -0.14500
C293        C  0.18539584  0.44575904  0.15000151    -0.12200
C294        C  0.20822811  0.44430735  0.17242998     0.01100
C295        C  0.22921654  0.44115461  0.14720842    -0.24400
H296        H  0.16806729  0.44810670  0.94054321     0.09100
H297        H  0.16457998  0.44464179  0.01963252     0.12600
H298        H  0.24724115  0.44154810  0.94292784     0.11400
H299        H  0.26688117  0.43625458  0.01271045     0.12600
H300        H  0.26689949  0.43586728  0.09350370     0.11600
H301        H  0.16569919  0.44628113  0.08914884     0.08700
H302        H  0.16884736  0.44824293  0.16828900     0.11900
H303        H  0.24700593  0.43994335  0.16388316     0.13800
C304        C  0.41187153  0.40094112  0.66731109    -0.01700
C305        C  0.40961057  0.40841072  0.71125656    -0.09700
C306        C  0.38624745  0.38828853  0.73878297    -0.18600
C307        C  0.36446685  0.35988569  0.72307741     0.03800
C308        C  0.36744363  0.35239478  0.67873484     0.18000
C309        C  0.39083707  0.37271942  0.65168476    -0.20000
C310        C  0.34682122  0.32474771  0.66112948    -0.21300
C311        C  0.32293385  0.30428492  0.68640945    -0.19800
C312        C  0.31904330  0.31090353  0.72999180     0.19400
C313        C  0.33974106  0.33867425  0.74925835     0.01500
C314        C  0.33454447  0.34385251  0.79362967    -0.14500
C315        C  0.30975984  0.32244096  0.81748550    -0.12200
C316        C  0.28928336  0.29524256  0.79797385     0.01100
C317        C  0.29432453  0.28974922  0.75420776    -0.24400
H318        H  0.42546596  0.43016194  0.72402188     0.09100
H319        H  0.38560322  0.39567609  0.77195922     0.12600
H320        H  0.39243275  0.36658638  0.61781484     0.11400
H321        H  0.34906217  0.31896084  0.62735428     0.12600
H322        H  0.30726879  0.28313003  0.67162670     0.11600
H323        H  0.34918331  0.36425853  0.81069404     0.08700
H324        H  0.30651399  0.32737725  0.85125167     0.11900
H325        H  0.27888335  0.26881409  0.73862674     0.13800
C326        C  0.19328238  0.20184661  0.79820166    -0.01700
C327        C  0.16418315  0.19651849  0.79648521    -0.09700
C328        C  0.14281082  0.17349678  0.77037120    -0.18600
C329        C  0.14990784  0.15468122  0.74577931     0.03800
C330        C  0.17909319  0.15918242  0.75006216     0.18000
C331        C  0.20055352  0.18296522  0.77534224    -0.20000
C332        C  0.18680872  0.14014439  0.72866531    -0.21300
C333        C  0.16644136  0.11718895  0.70194831    -0.19800
C334        C  0.13810747  0.11319888  0.69491329     0.19400
C335        C  0.12935541  0.13184829  0.71672548     0.01500
C336        C  0.10083539  0.12746336  0.70722163    -0.14500
C337        C  0.08225549  0.10611032  0.67646008    -0.12200
C338        C  0.09113552  0.08802283  0.65457360     0.01100
C339        C  0.11886729  0.09127262  0.66493097    -0.24400
H340        H  0.15819608  0.21082011  0.81436458     0.09100
H341        H  0.12095854  0.17095391  0.77014630     0.12600
H342        H  0.22301806  0.18682831  0.77733850     0.11400
H343        H  0.20885045  0.14315296  0.73238042     0.12600
H344        H  0.17321837  0.10298298  0.68561029     0.11600
H345        H  0.09260104  0.14080578  0.72196396     0.08700
H346        H  0.06092375  0.10406742  0.66935040     0.11900
H347        H  0.12610568  0.07756068  0.64816593     0.13800
C348        C  0.41122128  0.40211853  0.44254747    -0.01700
C349        C  0.41070621  0.40841742  0.39738029    -0.09700
C350        C  0.38667859  0.38903851  0.37048553    -0.18600
C351        C  0.36239899  0.36263422  0.38813814     0.03800
C352        C  0.36344257  0.35639536  0.43385390     0.18000
C353        C  0.38753704  0.37587004  0.46015937    -0.20000
C354        C  0.34030729  0.33079430  0.45351462    -0.21300
C355        C  0.31597768  0.31097455  0.42875606    -0.19800
C356        C  0.31413056  0.31621637  0.38366654     0.19400
C357        C  0.33715757  0.34210411  0.36250670     0.01500
C358        C  0.33377977  0.34604863  0.31678856    -0.14500
C359        C  0.30883378  0.32495339  0.29319502    -0.12200
C360        C  0.28639698  0.29931411  0.31430230     0.01100
C361        C  0.28928666  0.29539816  0.35970893    -0.24400
H362        H  0.42858657  0.42866235  0.38301261     0.09100
H363        H  0.38757622  0.39537873  0.33616816     0.12600
H364        H  0.38759033  0.37062429  0.49502925     0.11400
H365        H  0.34102894  0.32603124  0.48840477     0.12600
H366        H  0.29847377  0.29130851  0.44503544     0.11600
H367        H  0.35011343  0.36513014  0.29837649     0.08700
H368        H  0.30722772  0.32872486  0.25819408     0.11900
H369        H  0.27219145  0.27582171  0.37672205     0.13800
C370        C  0.19299243  0.20352373  0.31296365    -0.01700
C371        C  0.20206799  0.18539882  0.33373637    -0.09700
C372        C  0.18193130  0.16043863  0.35807426    -0.18600
C373        C  0.15207740  0.15335860  0.36349282     0.03800
C374        C  0.14300841  0.17195376  0.34218025     0.18000
C375        C  0.16332732  0.19640425  0.31633118    -0.20000
C376        C  0.11405690  0.16664173  0.34811194    -0.21300
C377        C  0.09430262  0.14409582  0.37639962    -0.19800
C378        C  0.10280329  0.12587021  0.39861832     0.19400
C379        C  0.13137505  0.12944191  0.39105543     0.01500
C380        C  0.13822907  0.10937298  0.41235962    -0.14500
C381        C  0.11855923  0.08832609  0.44268258    -0.12200
C382        C  0.09139551  0.08646217  0.45279250     0.01100
C383        C  0.08323079  0.10464797  0.42940485    -0.24400
H384        H  0.22497014  0.19067085  0.33119907     0.09100
H385        H  0.19072058  0.14778617  0.37350949     0.12600
H386        H  0.15643336  0.21068298  0.30041312     0.11400
H387        H  0.10694639  0.18063692  0.33189257     0.12600
H388        H  0.07237123  0.14118139  0.38144668     0.11600
H389        H  0.15876242  0.10957043  0.40671041     0.08700
H390        H  0.12516387  0.07407785  0.45934272     0.11900
H391        H  0.06189616  0.10284487  0.43595590     0.13800
C392        C  0.23171627  0.25758022  0.93742698    -0.01700
C393        C  0.25014020  0.28442578  0.95929941    -0.09700
C394        C  0.24958834  0.28626307  0.00552068    -0.18600
C395        C  0.23076222  0.26102779  0.03167659     0.03800
C396        C  0.21136944  0.23409764  0.00923480     0.18000
C397        C  0.21186498  0.23268524  0.96268410    -0.20000
C398        C  0.19207902  0.20849125  0.03339755    -0.21300
C399        C  0.19202920  0.20883346  0.07951983    -0.19800
C400        C  0.21137576  0.23475017  0.10265975     0.19400
C401        C  0.23090553  0.26131059  0.07917475     0.01500
C402        C  0.25024380  0.28670908  0.10432800    -0.14500
C403        C  0.25068835  0.28552482  0.15064837    -0.12200
C404        C  0.23169799  0.25918413  0.17360304     0.01100
C405        C  0.21174905  0.23401199  0.14925393    -0.24400
H406        H  0.26537684  0.30412969  0.94062953     0.09100
H407        H  0.26450312  0.30767096  0.01976304     0.12600
H408        H  0.19741925  0.21176511  0.94623790     0.11400
H409        H  0.17717265  0.18791921  0.01650101     0.12600
H410        H  0.17706539  0.18852148  0.09723415     0.11600
H411        H  0.26569984  0.30772409  0.08921753     0.08700
H412        H  0.26621532  0.30535194  0.16853204     0.11900
H413        H  0.19698987  0.21340155  0.16648464     0.13800
C414        C  0.21899250  0.72934017  0.29066455     0.79800
N415        N  0.24223725  0.75204798  0.31179192    -0.78500
C416        C  0.26268153  0.77655325  0.28941296     0.82300
N417        N  0.25991245  0.77796800  0.24474465    -0.78400
C418        C  0.23678861  0.75524765  0.22274743     0.82300
N419        N  0.21626314  0.73098191  0.24602953    -0.80200
C420        C  0.22162357  0.72201219  0.82242251     0.79800
N421        N  0.21848642  0.72556553  0.86637642    -0.78500
C422        C  0.24002200  0.74936165  0.88865963     0.82300
N423        N  0.26456128  0.76996333  0.86621459    -0.78400
C424        C  0.26797582  0.76677527  0.82213927     0.82300
N425        N  0.24645061  0.74251328  0.80056559    -0.80200
C426        C  0.23997055  0.95968865  0.28820502     0.79800
N427        N  0.21887793  0.96214557  0.31106529    -0.78500
C428        C  0.19444550  0.95937330  0.29055829     0.82300
N429        N  0.19150950  0.95461580  0.24601299    -0.78400
C430        C  0.21260831  0.95233338  0.22223407     0.82300
N431        N  0.23675014  0.95465921  0.24371600    -0.80200
C432        C  0.23882470  0.95786768  0.82102568     0.79800
N433        N  0.21817094  0.96110887  0.79825265    -0.78500
C434        C  0.19358196  0.95819284  0.81881544     0.82300
N435        N  0.19014181  0.95258829  0.86323976    -0.78400
C436        C  0.21084869  0.94961559  0.88684418     0.82300
N437        N  0.23505272  0.95204574  0.86532355    -0.80200
C438        C  0.50455912  0.74715155  0.28735696     0.79800
N439        N  0.51004267  0.74992236  0.24289219    -0.78500
C440        C  0.51222917  0.72836852  0.22032420     0.82300
N441        N  0.50924435  0.70424952  0.24290510    -0.78400
C442        C  0.50389474  0.70126695  0.28732563     0.82300
N443        N  0.50130833  0.72273014  0.30910839    -0.80200
C444        C  0.50174135  0.74508319  0.81909592     0.79800
N445        N  0.50784537  0.74789840  0.86321114    -0.78500
C446        C  0.50985295  0.72615969  0.88562029     0.82300
N447        N  0.50616534  0.70176994  0.86310776    -0.78400
C448        C  0.50012682  0.69883644  0.81889912     0.82300
N449        N  0.49766737  0.72048048  0.79743691    -0.80200
O450        O  0.42066646  0.49977318  0.50340930    -0.88600
C451        C  0.07285244  0.56438565  0.62023274     1.11400
O452        O  0.45732110  0.97725315  0.55456061    -1.36400
O453        O  0.05330312  0.56894432  0.50494572    -0.90100
O454        O  0.39664057  0.95006482  0.50628845    -0.90700
O455        O  0.45874511  0.94759993  0.46019373    -0.79600
O456        O  0.48713686  0.53449142  0.51225854    -1.01700
C457        C  0.04465977  0.98149846  0.47364436     1.21500
O458        O  0.49037286  0.94849856  0.55450070    -1.36500
Mn459      Mn  0.48890077  0.97852991  0.60317546     1.82100
O460        O  0.02107859  0.97989732  0.46035445    -0.78600
O461        O  0.07932038  0.54532773  0.50626329    -0.88000
C462        C  0.04402893  0.98082940  0.63606577     1.12600
C463        C  0.07440978  0.56534458  0.49120461     1.07300
O464        O  0.45826977  0.94663549  0.64869318    -0.79600
O465        O  0.01908235  0.50863626  0.55452807    -1.33300
O466        O  0.43232955  0.91906620  0.59604704    -0.98800
C467        C  0.49308751  0.89518625  0.48856521     1.06000
Mn468      Mn  0.06146076  0.51228822  0.55535480     1.48600
O469        O  0.46803265  0.89015324  0.50325334    -0.88000
Mn470      Mn  0.41613862  0.93670584  0.55537084     1.49600
O471        O  0.42004140  0.99963464  0.60437880    -0.91900
C472        C  0.48788352  0.53103779  0.47239595     1.19200
C473        C  0.40090362  0.97448096  0.62036729     1.11300
Mn474      Mn  0.48924715  0.97874660  0.50596826     1.81000
O475        O  0.04806013  0.98144319  0.59617711    -0.97000
Mn476      Mn  0.45326139  0.51523930  0.55335819     1.49300
C477        C  0.39980502  0.97441678  0.49139102     1.07800
Mn478      Mn  0.03093662  0.94802663  0.55442349     1.49900
C479        C  0.49235903  0.89384395  0.61750181     1.10700
O480        O  0.43234489  0.92022782  0.51295720    -1.02800
O481        O  0.07831689  0.54479268  0.60506351    -0.92500
C482        C  0.43564186  0.92472849  0.47311021     1.22000
O483        O  0.04827910  0.98186638  0.51354488    -1.03200
O484        O  0.05224819  0.56828859  0.60498320    -0.90600
O485        O  0.01720649  0.91519949  0.60411061    -0.90200
O486        O  0.39765841  0.94994740  0.60627937    -0.90200
Mn487      Mn  0.02030088  0.55007518  0.55427550     1.47900
O488        O  0.02038636  0.97933332  0.64902468    -0.78700
C489        C  0.43604893  0.92293902  0.63593738     1.15000
O490        O  0.48892488  0.50855868  0.45976862    -0.77400
O491        O  0.48778121  0.50843635  0.64846177    -0.77100
Mn492      Mn  0.45189134  0.90596080  0.55348633     1.51100
O493        O  0.01774671  0.91575208  0.50374405    -0.89400
O494        O  0.48640775  0.53411671  0.59508093    -0.96900
O495        O  0.46757983  0.88860578  0.60172356    -0.91900
C496        C  0.48647527  0.53063364  0.63503472     1.12800
C497        C  0.48545958  0.55276609  0.66488020    -0.01700
C498        C  0.47448198  0.57047014  0.64788552    -0.09700
C499        C  0.47514145  0.59328355  0.67275787    -0.18600
C500        C  0.48716746  0.59961897  0.71596677     0.03800
C501        C  0.49804540  0.58148467  0.73362516     0.18000
C502        C  0.99685076  0.55807013  0.70818622    -0.20000
C503        C  0.01052061  0.58728458  0.77615640    -0.21300
C504        C  0.01264804  0.61078950  0.80130721    -0.19800
C505        C  0.50230449  0.62912734  0.78468125     0.19400
C506        C  0.48920657  0.62362099  0.74184364     0.01500
C507        C  0.47899070  0.64261601  0.72648804    -0.14500
C508        C  0.48235438  0.66645494  0.75190043    -0.12200
C509        C  0.49574416  0.67231323  0.79379315     0.01100
C510        C  0.50530186  0.65320575  0.81031514    -0.24400
H511        H  0.46545291  0.56683914  0.61461405     0.09100
H512        H  0.46641073  0.60577869  0.65671669     0.12600
H513        H  0.00569229  0.54470762  0.72146332     0.11400
H514        H  0.01894704  0.57369964  0.78994032     0.12600
H515        H  0.02264852  0.61476754  0.83392802     0.11600
H516        H  0.46841854  0.63988005  0.69480401     0.08700
H517        H  0.47435015  0.68045729  0.73838116     0.11900
H518        H  0.01566832  0.65743188  0.84268943     0.13800
C519        C  0.49806196  0.76761629  0.79458978    -0.01700
C520        C  0.47437179  0.75817178  0.76506261    -0.09700
C521        C  0.47135181  0.77854444  0.73875478    -0.18600
C522        C  0.49256227  0.80926801  0.74023846     0.03800
C523        C  0.01670982  0.81884826  0.77025778     0.18000
C524        C  0.01886839  0.79807147  0.79787742    -0.20000
C525        C  0.03900359  0.84888373  0.77132839    -0.21300
C526        C  0.03837163  0.86941715  0.74214985    -0.19800
C527        C  0.01499694  0.86059966  0.71200222     0.19400
C528        C  0.49125109  0.83057510  0.71174190     0.01500
C529        C  0.46735759  0.82305235  0.68248970    -0.14500
C530        C  0.46770450  0.84396148  0.65321776    -0.12200
C531        C  0.49185672  0.87308049  0.65165181     0.01100
C532        C  0.01532920  0.88144302  0.68162778    -0.24400
H533        H  0.45811413  0.73471594  0.76207319     0.09100
H534        H  0.45269224  0.76930588  0.71649525     0.12600
H535        H  0.03749911  0.80537444  0.82031137     0.11400
H536        H  0.05749793  0.85639971  0.79404960     0.12600
H537        H  0.05639325  0.89230755  0.74296904     0.11600
H538        H  0.44796980  0.80117447  0.68134093     0.08700
H539        H  0.44915879  0.83695675  0.63074616     0.11900
H540        H  0.03387285  0.90409608  0.68121301     0.13800
C541        C  0.48832280  0.55366678  0.44153438    -0.01700
C542        C  0.49527600  0.55478869  0.39632354    -0.09700
C543        C  0.49737962  0.57775968  0.36896805    -0.18600
C544        C  0.49253504  0.60038181  0.38618223     0.03800
C545        C  0.98501056  0.59865694  0.43188952     0.18000
C546        C  0.98287767  0.57557403  0.45865340    -0.20000
C547        C  0.98002906  0.62023193  0.45114303    -0.21300
C548        C  0.98270813  0.64389767  0.42614923    -0.19800
C549        C  0.99026973  0.64655332  0.38114263     0.19400
C550        C  0.49509529  0.62479866  0.36022174     0.01500
C551        C  0.50236187  0.62867608  0.31445341    -0.14500
C552        C  0.50500720  0.65322385  0.29084233    -0.12200
C553        C  0.50061118  0.67480527  0.31192635     0.01100
C554        C  0.99310902  0.67106007  0.35713926    -0.24400
H555        H  0.49967642  0.53822734  0.38225188     0.09100
H556        H  0.50318035  0.57747003  0.33467058     0.12600
H557        H  0.97727699  0.57494628  0.49350225     0.11400
H558        H  0.97426173  0.61894876  0.48600282     0.12600
H559        H  0.97892338  0.66033971  0.44224632     0.11600
H560        H  0.50616504  0.61312336  0.29606373     0.08700
H561        H  0.51071860  0.65535836  0.25591029     0.11900
H562        H  0.98944399  0.68734443  0.37402451     0.13800
C563        C  0.49298327  0.87475819  0.45399741    -0.01700
C564        C  0.46913706  0.84544591  0.45286630    -0.09700
C565        C  0.46910245  0.82461298  0.42384502    -0.18600
C566        C  0.49295618  0.83239130  0.39418499     0.03800
C567        C  0.01611915  0.86265677  0.39277160     0.18000
C568        C  0.01633605  0.88341442  0.42328963    -0.20000
C569        C  0.03892516  0.87175764  0.36120507    -0.21300
C570        C  0.03949224  0.85131228  0.33177621    -0.19800
C571        C  0.01801969  0.82098903  0.33443136     0.19400
C572        C  0.49466009  0.81110580  0.36618348     0.01500
C573        C  0.47472807  0.78014480  0.37002710    -0.14500
C574        C  0.47804427  0.75987801  0.34393277    -0.12200
C575        C  0.50071373  0.76957138  0.31220584     0.01100
C576        C  0.02032053  0.80026531  0.30683694    -0.24400
H577        H  0.45061527  0.83819506  0.47565358     0.09100
H578        H  0.44990684  0.80258901  0.42525014     0.12600
H579        H  0.03458918  0.90620850  0.42312695     0.11400
H580        H  0.05646945  0.89482860  0.35930448     0.12600
H581        H  0.05744285  0.85912083  0.30779700     0.11600
H582        H  0.45704243  0.77073898  0.39420931     0.08700
H583        H  0.46276683  0.73630291  0.34877263     0.11900
H584        H  0.03825355  0.80787920  0.28283582     0.13800
C585        C  0.51608882  0.73001600  0.17118503    -0.01700
C586        C  0.51943039  0.70824340  0.14876555    -0.09700
C587        C  0.52070451  0.70794365  0.10248629    -0.18600
C588        C  0.51850461  0.72947304  0.07660292     0.03800
C589        C  0.01633309  0.75226815  0.09933822     0.18000
C590        C  0.01516505  0.75236205  0.14607957    -0.20000
C591        C  0.01476749  0.77451575  0.07526235    -0.21300
C592        C  0.01467714  0.77428605  0.02905739    -0.19800
C593        C  0.51582526  0.75161700  0.00569187     0.19400
C594        C  0.51792061  0.72895494  0.02907856     0.01500
C595        C  0.51856875  0.70635523  0.00386114    -0.14500
C596        C  0.51659770  0.70595596  0.95760597    -0.12200
C597        C  0.51410577  0.72807261  0.93460227     0.01100
C598        C  0.51420444  0.75113044  0.95902758    -0.24400
H599        H  0.52066244  0.69092194  0.16702296     0.09100
H600        H  0.52315934  0.69036668  0.08803688     0.12600
H601        H  0.01280890  0.76950632  0.16281508     0.11400
H602        H  0.01329718  0.79207724  0.09229854     0.12600
H603        H  0.01315509  0.79168917  0.01148002     0.11600
H604        H  0.52000889  0.68829916  0.01885871     0.08700
H605        H  0.51662946  0.68787441  0.93985904     0.11900
H606        H  0.01223281  0.76841067  0.94184673     0.13800
C607        C  0.38065242  0.97370279  0.65574361    -0.01700
C608        C  0.36799414  0.95034014  0.68668068    -0.09700
C609        C  0.34696381  0.94837277  0.71766830    -0.18600
C610        C  0.33721296  0.96937232  0.71779221     0.03800
C611        C  0.35038324  0.99315085  0.68649881     0.18000
C612        C  0.37227461  0.99544900  0.65673880    -0.20000
C613        C  0.34086684  0.01394134  0.68386889    -0.21300
C614        C  0.31768465  0.01101469  0.71039383    -0.19800
C615        C  0.30392669  0.98767070  0.74107395     0.19400
C616        C  0.31410312  0.96706815  0.74643817     0.01500
C617        C  0.30029857  0.94487588  0.77971047    -0.14500
C618        C  0.27659049  0.94254869  0.80507184    -0.12200
C619        C  0.26559374  0.96182926  0.79753538     0.01100
C620        C  0.27966080  0.98456921  0.76592573    -0.24400
H621        H  0.37417483  0.93331380  0.68663367     0.09100
H622        H  0.33798332  0.92960870  0.74005865     0.12600
H623        H  0.38171476  0.01344950  0.63264096     0.11400
H624        H  0.35083944  0.03212773  0.66015665     0.12600
H625        H  0.31028035  0.02700979  0.70659609     0.11600
H626        H  0.30729763  0.92899387  0.78679697     0.08700
H627        H  0.26616932  0.92497958  0.82965451     0.11900
H628        H  0.27158702  0.99992752  0.76059263     0.13800
C629        C  0.17157665  0.96231330  0.79280763    -0.01700
C630        C  0.17852543  0.97332447  0.74925724    -0.09700
C631        C  0.15880265  0.97799716  0.72412481    -0.18600
C632        C  0.13098764  0.97167197  0.74150413     0.03800
C633        C  0.12415746  0.46085636  0.78560153     0.18000
C634        C  0.14492978  0.45712384  0.81068356    -0.20000
C635        C  0.09489180  0.44865468  0.80103682    -0.21300
C636        C  0.07363687  0.45095431  0.77598214    -0.19800
C637        C  0.08113760  0.46587859  0.73506467     0.19400
C638        C  0.11022918  0.97624370  0.71665157     0.01500
C639        C  0.11686582  0.98960890  0.67417371    -0.14500
C640        C  0.09551267  0.99190889  0.64964450    -0.12200
C641        C  0.06675258  0.98131108  0.66632616     0.01100
C642        C  0.05895012  0.46685742  0.70935649    -0.24400
H643        H  0.19956237  0.97864000  0.73427822     0.09100
H644        H  0.16590851  0.98617088  0.69086307     0.12600
H645        H  0.13815906  0.44510712  0.84194246     0.11400
H646        H  0.08823603  0.43674799  0.83237810     0.12600
H647        H  0.05107592  0.44069772  0.78850425     0.11600
H648        H  0.13836181  0.99848427  0.65874518     0.08700
H649        H  0.10151714  0.00171131  0.61675607     0.11900
H650        H  0.03613143  0.45573664  0.72097144     0.13800
C651        C  0.26637190  0.96339618  0.31224052    -0.01700
C652        C  0.27776651  0.94447920  0.30460179    -0.09700
C653        C  0.30059186  0.94610284  0.33125711    -0.18600
C654        C  0.31308654  0.96722675  0.36593110     0.03800
C655        C  0.30263146  0.98757665  0.37140220     0.18000
C656        C  0.27920289  0.98511749  0.34530400    -0.20000
C657        C  0.31536088  0.01009739  0.40324920    -0.21300
C658        C  0.33814077  0.01273422  0.43026955    -0.19800
C659        C  0.34806013  0.99228032  0.42722406     0.19400
C660        C  0.33541470  0.96892090  0.39549224     0.01500
C661        C  0.34496422  0.94777515  0.39590336    -0.14500
C662        C  0.36595306  0.94969754  0.42673161    -0.12200
C663        C  0.37878578  0.97316782  0.45718106     0.01100
C664        C  0.36999758  0.99460486  0.45672516    -0.24400
H665        H  0.26826556  0.92767088  0.27899505     0.09100
H666        H  0.30807359  0.93063377  0.32393201     0.12600
H667        H  0.27079460  0.00017965  0.35081649     0.11400
H668        H  0.30766577  0.02584432  0.40725328     0.12600
H669        H  0.34756227  0.03048076  0.45451972     0.11600
H670        H  0.33590520  0.92898694  0.37376202     0.08700
H671        H  0.37214431  0.93268725  0.42680557     0.11900
H672        H  0.37933664  0.01248314  0.48080817     0.13800
C673        C  0.06747158  0.98174016  0.44384870    -0.02400
C674        C  0.09549792  0.99032758  0.46159964    -0.09700
C675        C  0.11667649  0.98758070  0.43728484    -0.18600
C676        C  0.11060956  0.97588128  0.39389519     0.03800
C677        C  0.08286489  0.96876710  0.37473263     0.18000
C678        C  0.06149173  0.97166884  0.39982890    -0.20000
C679        C  0.07661640  0.95845738  0.33093671    -0.21300
C680        C  0.09729924  0.95506135  0.30589256    -0.19800
C681        C  0.12449516  0.96119779  0.32432260     0.19400
C682        C  0.13123182  0.97118642  0.36891682     0.01500
C683        C  0.15814297  0.97557640  0.38698886    -0.14500
C684        C  0.17801993  0.97136728  0.36148648    -0.12200
C685        C  0.17206820  0.96264614  0.31694122     0.01100
C686        C  0.14500373  0.95731761  0.29862231    -0.24400
H687        H  0.10103595  0.99884775  0.49513754     0.09100
H688        H  0.13760105  0.99488290  0.45355755     0.12600
H689        H  0.03997003  0.96518263  0.38566086     0.11400
H690        H  0.05561389  0.95304469  0.31589684     0.12600
H691        H  0.09182764  0.94723674  0.27202178     0.11600
H692        H  0.16444308  0.98192636  0.42098262     0.08700
H693        H  0.19840826  0.97527165  0.37700415     0.11900
H694        H  0.13981207  0.95005977  0.26445827     0.13800
C695        C  0.20824243  0.94609036  0.93607457    -0.01700
C696        C  0.18453477  0.94575774  0.95883176    -0.09700
C697        C  0.18328199  0.94508208  0.00525695    -0.18600
C698        C  0.20590888  0.94480949  0.03083689     0.03800
C699        C  0.22939475  0.94415318  0.00766885     0.18000
C700        C  0.23029941  0.94469669  0.96095453    -0.20000
C701        C  0.25221536  0.94353483  0.03123947    -0.21300
C702        C  0.25257739  0.94412430  0.07739146    -0.19800
C703        C  0.23017053  0.94542597  0.10126247     0.19400
C704        C  0.20637224  0.94558846  0.07842361     0.01500
C705        C  0.18441931  0.94703745  0.10427011    -0.14500
C706        C  0.18629749  0.94869720  0.15059667    -0.12200
C707        C  0.21001123  0.94893351  0.17303425     0.01100
C708        C  0.23172303  0.94699521  0.14791534    -0.24400
H709        H  0.16701464  0.94659040  0.94074520     0.09100
H710        H  0.16448311  0.94515459  0.02010247     0.12600
H711        H  0.24870316  0.94472605  0.94402143     0.11400
H712        H  0.27012440  0.94290271  0.01382518     0.12600
H713        H  0.27073980  0.94390236  0.09454342     0.11600
H714        H  0.16566816  0.94726925  0.08969368     0.08700
H715        H  0.16914586  0.95017369  0.16884901     0.11900
H716        H  0.25020947  0.94712549  0.16460020     0.13800
C717        C  0.41395348  0.90032088  0.66691985    -0.01700
C718        C  0.41198375  0.90669696  0.71154964    -0.09700
C719        C  0.38938047  0.88551746  0.73909063    -0.18600
C720        C  0.36807186  0.85710834  0.72271557     0.03800
C721        C  0.37074534  0.85072204  0.67764510     0.18000
C722        C  0.39337675  0.87211104  0.65056407    -0.20000
C723        C  0.35057099  0.82310726  0.65940527    -0.21300
C724        C  0.32736475  0.80164400  0.68474361    -0.19800
C725        C  0.32368707  0.80720682  0.72901550     0.19400
C726        C  0.34404960  0.83487989  0.74892345     0.01500
C727        C  0.33918180  0.83901965  0.79392485    -0.14500
C728        C  0.31489597  0.81685549  0.81768928    -0.12200
C729        C  0.29456907  0.78982561  0.79756285     0.01100
C730        C  0.29944208  0.78519998  0.75323752    -0.24400
H731        H  0.42750637  0.92836455  0.72493828     0.09100
H732        H  0.38895059  0.89210251  0.77286000     0.12600
H733        H  0.39475258  0.86678786  0.61615274     0.11400
H734        H  0.35260120  0.81813861  0.62507700     0.12600
H735        H  0.31200369  0.78058027  0.66943198     0.11600
H736        H  0.35363621  0.85923229  0.81154808     0.08700
H737        H  0.31185455  0.82114887  0.85190303     0.11900
H738        H  0.28414278  0.76440435  0.73718634     0.13800
C739        C  0.19794756  0.69638083  0.79830515    -0.01700
C740        C  0.16874128  0.69085572  0.79927235    -0.09700
C741        C  0.14656084  0.66786207  0.77404771    -0.18600
C742        C  0.15291248  0.64922975  0.74761242     0.03800
C743        C  0.18226881  0.65387682  0.74914654     0.18000
C744        C  0.20451676  0.67763011  0.77361786    -0.20000
C745        C  0.18937840  0.63506577  0.72570955    -0.21300
C746        C  0.16831214  0.61242180  0.69928598    -0.19800
C747        C  0.13980435  0.60847168  0.69471006     0.19400
C748        C  0.13151773  0.62660524  0.71906327     0.01500
C749        C  0.10261923  0.62204785  0.71229246    -0.14500
C750        C  0.08342668  0.60143227  0.68111953    -0.12200
C751        C  0.09202789  0.58417993  0.65632877     0.01100
C752        C  0.11995554  0.58722269  0.66449231    -0.24400
H753        H  0.16324213  0.70497899  0.81864260     0.09100
H754        H  0.12470141  0.66524502  0.77586006     0.12600
H755        H  0.22703402  0.68154500  0.77358193     0.11400
H756        H  0.21153084  0.63812078  0.72738545     0.12600
H757        H  0.17469093  0.59851526  0.68111082     0.11600
H758        H  0.09456659  0.63478992  0.72945132     0.08700
H759        H  0.06187441  0.59932978  0.67594277     0.11900
H760        H  0.12692258  0.57401263  0.64566048     0.13800
C761        C  0.41182421  0.90414477  0.44270837    -0.01700
C762        C  0.41194532  0.91000158  0.39722806    -0.09700
C763        C  0.38790228  0.89077529  0.37027165    -0.18600
C764        C  0.36302119  0.86503562  0.38825248     0.03800
C765        C  0.36335560  0.85943073  0.43440129     0.18000
C766        C  0.38741766  0.87872323  0.46071599    -0.20000
C767        C  0.33965828  0.83451508  0.45445805    -0.21300
C768        C  0.31558014  0.81453261  0.42956000    -0.19800
C769        C  0.31455247  0.81900405  0.38399852     0.19400
C770        C  0.33796771  0.84439988  0.36249711     0.01500
C771        C  0.33521986  0.84762393  0.31631579    -0.14500
C772        C  0.31069902  0.82599972  0.29251662    -0.12200
C773        C  0.28814669  0.80063605  0.31398157     0.01100
C774        C  0.29020563  0.79774392  0.35989701    -0.24400
H775        H  0.43042481  0.92967496  0.38259672     0.09100
H776        H  0.38933402  0.89659922  0.33561822     0.12600
H777        H  0.38693698  0.87389851  0.49587132     0.11400
H778        H  0.33984023  0.83030188  0.48969581     0.12600
H779        H  0.29770050  0.79526237  0.44606193     0.11600
H780        H  0.35178898  0.86644404  0.29770978     0.08700
H781        H  0.30960383  0.82901875  0.25712477     0.11900
H782        H  0.27291379  0.77848579  0.37725452     0.13800
C783        C  0.19783745  0.70285324  0.31662015    -0.01700
C784        C  0.20849330  0.69308980  0.35161404    -0.09700
C785        C  0.18911174  0.66934314  0.37860394    -0.18600
C786        C  0.15806175  0.65485846  0.37214457     0.03800
C787        C  0.14721366  0.66524764  0.33720160     0.18000
C788        C  0.16715794  0.68852994  0.30905048    -0.20000
C789        C  0.11654861  0.65295047  0.33155228    -0.21300
C790        C  0.09646018  0.63115530  0.36060271    -0.19800
C791        C  0.10648081  0.62022872  0.39495118     0.19400
C792        C  0.13741047  0.63117115  0.40012777     0.01500
C793        C  0.14634434  0.61792650  0.43313332    -0.14500
C794        C  0.12558808  0.59581626  0.46115831    -0.12200
C795        C  0.09533716  0.58645741  0.45789076     0.01100
C796        C  0.08583114  0.59855199  0.42441416    -0.24400
H797        H  0.23210360  0.70401158  0.35828318     0.09100
H798        H  0.19909415  0.66355782  0.40521274     0.12600
H799        H  0.15876539  0.69643290  0.28258168     0.11400
H800        H  0.10805150  0.66081514  0.30520437     0.12600
H801        H  0.07290793  0.62269746  0.35605848     0.11600
H802        H  0.16919938  0.62397654  0.43790600     0.08700
H803        H  0.13340951  0.58665430  0.48659587     0.11900
H804        H  0.06235925  0.59102052  0.42125602     0.13800
C805        C  0.23739426  0.75220404  0.93730379    -0.01700
C806        C  0.25595798  0.77914815  0.95887100    -0.09700
C807        C  0.25501646  0.78145124  0.00499363    -0.18600
C808        C  0.23563035  0.75659691  0.03142717     0.03800
C809        C  0.21634251  0.72949037  0.00931872     0.18000
C810        C  0.21719665  0.72762691  0.96282182    -0.20000
C811        C  0.19678010  0.70415343  0.03379707    -0.21300
C812        C  0.19640311  0.70490646  0.07991856    -0.19800
C813        C  0.21552163  0.73103937  0.10278801     0.19400
C814        C  0.23516311  0.75739762  0.07892695     0.01500
C815        C  0.25391357  0.78316751  0.10376091    -0.14500
C816        C  0.25389531  0.78248096  0.15012987    -0.12200
C817        C  0.23505089  0.75626099  0.17355537     0.01100
C818        C  0.21552031  0.73074721  0.14948927    -0.24400
H819        H  0.27154845  0.79859884  0.94003868     0.09100
H820        H  0.27012527  0.80289191  0.01896457     0.12600
H821        H  0.20270048  0.70661453  0.94664394     0.11400
H822        H  0.18196033  0.68343941  0.01716433     0.12600
H823        H  0.18129876  0.68475953  0.09786338     0.11600
H824        H  0.26918229  0.80414902  0.08838127     0.08700
H825        H  0.26902452  0.80263901  0.16768719     0.11900
H826        H  0.20077768  0.71028056  0.16705125     0.13800
C827        C  0.71497193  0.23043559  0.28926674     0.79800
N828        N  0.73893991  0.25175391  0.31120675    -0.78500
C829        C  0.76013445  0.27631082  0.28955319     0.82300
N830        N  0.75734822  0.27893047  0.24509232    -0.78400
C831        C  0.73355858  0.25743395  0.22258116     0.82300
N832        N  0.71236264  0.23330561  0.24503741    -0.80200
C833        C  0.71635452  0.22769520  0.82251327     0.79800
N834        N  0.71298549  0.23116122  0.86639244    -0.78500
C835        C  0.73433050  0.25506920  0.88875666     0.82300
N836        N  0.75891433  0.27580896  0.86649370    -0.78400
C837        C  0.76248691  0.27260605  0.82248668     0.82300
N838        N  0.74116923  0.24827444  0.80089929    -0.80200
C839        C  0.73792242  0.45411973  0.28769020     0.79800
N840        N  0.71675443  0.45634564  0.31078298    -0.78500
C841        C  0.69227138  0.45361014  0.29039573     0.82300
N842        N  0.68946284  0.44924290  0.24573566    -0.78400
C843        C  0.71066044  0.44722552  0.22174270     0.82300
N844        N  0.73478961  0.44944950  0.24311611    -0.80200
C845        C  0.74010265  0.46078404  0.82080485     0.79800
N846        N  0.72022196  0.46575305  0.79891094    -0.78500
C847        C  0.69575954  0.46283186  0.81989512     0.82300
N848        N  0.69168606  0.45550181  0.86373648    -0.78400
C849        C  0.71163940  0.45091452  0.88652814     0.82300
N850        N  0.73570707  0.45330032  0.86462619    -0.80200
C851        C  0.00242524  0.24473926  0.28721139     0.79800
N852        N  0.00907642  0.24829852  0.24300965    -0.78500
C853        C  0.01096202  0.22664579  0.22010268     0.82300
N854        N  0.00656785  0.20182883  0.24203667    -0.78400
C855        C  0.00000971  0.19810797  0.28597923     0.82300
N856        N  0.99772471  0.21955441  0.30816188    -0.80200
C857        C  0.00147380  0.24456152  0.82166719     0.79800
N858        N  0.00924429  0.24790142  0.86514717    -0.78500
C859        C  0.01323053  0.22700171  0.88640019     0.82300
N860        N  0.00994168  0.20299392  0.86327727    -0.78400
C861        C  0.00244762  0.19967953  0.81958257     0.82300
N862        N  0.99795170  0.22043218  0.79934941    -0.80200
O863        O  0.91959034  0.99975622  0.50551629    -0.88600
C864        C  0.57240674  0.06730273  0.61899992     1.11400
O865        O  0.95716184  0.47655567  0.55409506    -1.36400
O866        O  0.55131130  0.06994534  0.50356852    -0.90100
O867        O  0.89715674  0.45004886  0.50484416    -0.90700
O868        O  0.95786963  0.44618419  0.46010026    -0.79600
O869        O  0.98571751  0.03502378  0.51228687    -1.01700
C870        C  0.54355313  0.47815650  0.47403371     1.21500
O871        O  0.98909401  0.44669259  0.55481975    -1.36500
Mn872      Mn  0.98825618  0.47733708  0.60313146     1.82100
O873        O  0.52040231  0.47744537  0.46049001    -0.78600
O874        O  0.57858692  0.04775222  0.50523939    -0.88000
C875        C  0.54283286  0.47881977  0.63670552     1.12600
C876        C  0.57245201  0.06667324  0.48911826     1.07300
O877        O  0.95712430  0.44608192  0.64861714    -0.79600
O878        O  0.51914347  0.01031236  0.55452506    -1.33300
O879        O  0.93097047  0.41832090  0.59621175    -0.98800
C880        C  0.99083598  0.39197130  0.49073274     1.06000
Mn881      Mn  0.56195120  0.01511077  0.55499180     1.48600
O882        O  0.96580694  0.38727727  0.50502861    -0.88000
Mn883      Mn  0.91563721  0.43626280  0.55461837     1.49600
O884        O  0.92014208  0.49979956  0.60274070    -0.91900
C885        C  0.98624366  0.03097157  0.47253586     1.19200
C886        C  0.90064751  0.47469983  0.61854367     1.11300
Mn887      Mn  0.98881088  0.47735646  0.50574830     1.81000
O888        O  0.54688112  0.47882113  0.59688669    -0.97000
Mn889      Mn  0.95256970  0.01545865  0.55438065     1.49300
C890        C  0.90080666  0.47442052  0.48923835     1.07800
Mn891      Mn  0.52914440  0.44522516  0.55553367     1.49900
C892        C  0.98969328  0.39149219  0.61924763     1.10700
O893        O  0.93137427  0.41887742  0.51293721    -1.02800
O894        O  0.57836155  0.04780149  0.60479970    -0.92500
C895        C  0.93484870  0.42314072  0.47303400     1.22000
O896        O  0.54715960  0.47878733  0.51401622    -1.03200
O897        O  0.55149695  0.07043574  0.60322741    -0.90600
O898        O  0.51464294  0.41254584  0.60554715    -0.90200
O899        O  0.89722935  0.45009457  0.60458101    -0.90200
Mn900      Mn  0.51919908  0.05116400  0.55370420     1.47900
O901        O  0.51926445  0.47762762  0.64928380    -0.78700
C902        C  0.93459380  0.42260340  0.63607106     1.15000
O903        O  0.98842992  0.00912280  0.46038616    -0.77400
O904        O  0.98793721  0.00911297  0.64857618    -0.77100
Mn905      Mn  0.95015071  0.40427928  0.55439855     1.51100
O906        O  0.51550934  0.41261085  0.50563674    -0.89400
O907        O  0.98591175  0.03467442  0.59541225    -0.96900
O908        O  0.96499456  0.38657079  0.60355223    -0.91900
C909        C  0.98633485  0.03115972  0.63530711     1.12800
C910        C  0.98537999  0.05308464  0.66534398    -0.01700
C911        C  0.97424389  0.07072866  0.64876542    -0.09700
C912        C  0.97560684  0.09384165  0.67356095    -0.18600
C913        C  0.98854794  0.10049209  0.71615386     0.03800
C914        C  0.99872782  0.08181164  0.73390762     0.18000
C915        C  0.49701779  0.05823000  0.70845062    -0.20000
C916        C  0.51086152  0.08711327  0.77664114    -0.21300
C917        C  0.51319322  0.11061643  0.80198650    -0.19800
C918        C  0.00396192  0.12977164  0.78494162     0.19400
C919        C  0.99176426  0.12507794  0.74155841     0.01500
C920        C  0.98376900  0.14553348  0.72503387    -0.14500
C921        C  0.98725802  0.16929427  0.75060759    -0.12200
C922        C  0.99879372  0.17376346  0.79369050     0.01100
C923        C  0.00710216  0.15380304  0.81074092    -0.24400
H924        H  0.96463667  0.06687302  0.61586277     0.09100
H925        H  0.96636156  0.10607605  0.65816837     0.12600
H926        H  0.50562495  0.04461333  0.72153084     0.11400
H927        H  0.51861536  0.07299569  0.79056211     0.12600
H928        H  0.52262224  0.11405376  0.83496163     0.11600
H929        H  0.97509839  0.14416430  0.69217526     0.08700
H930        H  0.98077607  0.18429389  0.73622125     0.11900
H931        H  0.51635349  0.15713324  0.84384496     0.13800
C932        C  0.99680967  0.26672264  0.79814907    -0.01700
C933        C  0.97150577  0.25729076  0.77199582    -0.09700
C934        C  0.96811958  0.27749065  0.74562688    -0.18600
C935        C  0.99058855  0.30782137  0.74354853     0.03800
C936        C  0.51626958  0.31722435  0.77034090     0.18000
C937        C  0.51879649  0.29681096  0.79811708    -0.20000
C938        C  0.53974320  0.34666449  0.76796058    -0.21300
C939        C  0.53872534  0.36681417  0.73855859    -0.19800
C940        C  0.51388218  0.35824598  0.71158545     0.19400
C941        C  0.98906863  0.32886477  0.71462265     0.01500
C942        C  0.96402215  0.32174676  0.68808584    -0.14500
C943        C  0.96412437  0.34245755  0.65845176    -0.12200
C944        C  0.98917039  0.37089945  0.65385435     0.01100
C945        C  0.51385993  0.37877975  0.68106751    -0.24400
H946        H  0.95438755  0.23401533  0.77155739     0.09100
H947        H  0.94817667  0.26842306  0.72605013     0.12600
H948        H  0.53864461  0.30398271  0.81783159     0.11400
H949        H  0.55939182  0.35396857  0.78816064     0.12600
H950        H  0.55760091  0.38922894  0.73671524     0.11600
H951        H  0.94398333  0.30034543  0.68936783     0.08700
H952        H  0.94465730  0.33580055  0.63811753     0.11900
H953        H  0.53318703  0.40087415  0.67829018     0.13800
C954        C  0.98522764  0.05216450  0.44076355    -0.01700
C955        C  0.99658222  0.05573593  0.39758738    -0.09700
C956        C  0.99780211  0.07788991  0.36951983    -0.18600
C957        C  0.98751391  0.09709044  0.38397767     0.03800
C958        C  0.47521744  0.09256168  0.42743081     0.18000
C959        C  0.47414088  0.07033808  0.45502433    -0.20000
C960        C  0.46465169  0.11069397  0.44373781    -0.21300
C961        C  0.46687811  0.13402094  0.41837325    -0.19800
C962        C  0.47954576  0.13967615  0.37595196     0.19400
C963        C  0.98953915  0.12101842  0.35761716     0.01500
C964        C  0.00152451  0.12754196  0.31412254    -0.14500
C965        C  0.00432767  0.15210484  0.29061147    -0.12200
C966        C  0.99544443  0.17102989  0.30964379     0.01100
C967        C  0.48264892  0.16429099  0.35210455    -0.24400
H968        H  0.00537515  0.04197913  0.38595552     0.09100
H969        H  0.00740493  0.07981325  0.33709207     0.12600
H970        H  0.46503908  0.06752077  0.48828649     0.11400
H971        H  0.45508410  0.10715692  0.47674329     0.12600
H972        H  0.45897550  0.14800311  0.43231029     0.11600
H973        H  0.00916709  0.11425369  0.29756139     0.08700
H974        H  0.01408308  0.15661367  0.25769362     0.11900
H975        H  0.47522397  0.17842397  0.36697250     0.13800
C976        C  0.99093163  0.37132012  0.45679031    -0.01700
C977        C  0.96701533  0.34206720  0.45512794    -0.09700
C978        C  0.96734453  0.32125734  0.42636530    -0.18600
C979        C  0.99162265  0.32906548  0.39748686     0.03800
C980        C  0.51510126  0.35919386  0.39717059     0.18000
C981        C  0.51489856  0.37984283  0.42736495    -0.20000
C982        C  0.53859941  0.36836695  0.36685362    -0.21300
C983        C  0.53935386  0.34820644  0.33710414    -0.19800
C984        C  0.51728227  0.31806374  0.33811219     0.19400
C985        C  0.99337996  0.30802014  0.36897957     0.01500
C986        C  0.97281064  0.27714849  0.37116038    -0.14500
C987        C  0.97582265  0.25715846  0.34396283    -0.12200
C988        C  0.99889899  0.26706468  0.31285174     0.01100
C989        C  0.51938936  0.29766810  0.30952459    -0.24400
H990        H  0.94814188  0.33489278  0.47718362     0.09100
H991        H  0.94806666  0.29927710  0.42724276     0.12600
H992        H  0.53332138  0.40254215  0.42785769     0.11400
H993        H  0.55647744  0.39132038  0.36603490     0.12600
H994        H  0.55776912  0.35610572  0.31395104     0.11600
H995        H  0.95472590  0.26757095  0.39467279     0.08700
H996        H  0.95996921  0.23360464  0.34746528     0.11900
H997        H  0.53772485  0.30540067  0.28622976     0.13800
C998        C  0.01605894  0.22876717  0.17123552    -0.01700
C999        C  0.01720429  0.20570357  0.14883303    -0.09700
C1000       C  0.01975442  0.20590683  0.10273001    -0.18600
C1001       C  0.02117358  0.22931343  0.07692947     0.03800
C1002       C  0.52088707  0.25313708  0.09967334     0.18000
C1003       C  0.51845464  0.25272842  0.14631907    -0.20000
C1004       C  0.52231414  0.27689980  0.07561683    -0.21300
C1005       C  0.52296363  0.27702293  0.02943277    -0.19800
C1006       C  0.02223372  0.25341008  0.00606921     0.19400
C1007       C  0.02198543  0.22950215  0.02943077     0.01500
C1008       C  0.02173644  0.20645477  0.00415367    -0.14500
C1009       C  0.02005501  0.20633558  0.95787490    -0.12200
C1010       C  0.01876878  0.22918500  0.93502654     0.01100
C1011       C  0.02080316  0.25313333  0.95944278    -0.24400
H1012       H  0.01562556  0.18692047  0.16690849     0.09100
H1013       H  0.02004200  0.18711257  0.08833430     0.12600
H1014       H  0.51770157  0.27077905  0.16305096     0.11400
H1015       H  0.52233782  0.29526348  0.09262200     0.12600
H1016       H  0.52343181  0.29546608  0.01182840     0.11600
H1017       H  0.02219784  0.18785267  0.01909360     0.08700
H1018       H  0.01895029  0.18773232  0.94005444     0.11900
H1019       H  0.52024329  0.27119836  0.94232505     0.13800
C1020       C  0.88021802  0.47391387  0.65370964    -0.01700
C1021       C  0.86590637  0.44949378  0.68265505    -0.09700
C1022       C  0.84482042  0.44755660  0.71347038    -0.18600
C1023       C  0.83669552  0.46974913  0.71552671     0.03800
C1024       C  0.85131808  0.49446102  0.68605233     0.18000
C1025       C  0.87325059  0.49664264  0.65642528    -0.20000
C1026       C  0.84326187  0.51640022  0.68515689    -0.21300
C1027       C  0.82026408  0.51386883  0.71177123    -0.19800
C1028       C  0.80529506  0.48979133  0.74096401     0.19400
C1029       C  0.81389495  0.46786425  0.74446096     0.01500
C1030       C  0.79903065  0.44495167  0.77642618    -0.14500
C1031       C  0.77586034  0.44331148  0.80238943    -0.12200
C1032       C  0.76640854  0.46400860  0.79673253     0.01100
C1033       C  0.78147284  0.48736192  0.76631477    -0.24400
H1034       H  0.87080897  0.43158546  0.68116171     0.09100
H1035       H  0.83453494  0.42794362  0.73418217     0.12600
H1036       H  0.88388749  0.51544698  0.63382637     0.11400
H1037       H  0.85428711  0.53527009  0.66278037     0.12600
H1038       H  0.81405223  0.53084146  0.70936082     0.11600
H1039       H  0.80484689  0.42803202  0.78212592     0.08700
H1040       H  0.76463002  0.42520566  0.82596283     0.11900
H1041       H  0.77458045  0.50376263  0.76238900     0.13800
C1042       C  0.67404316  0.46791639  0.79494906    -0.01700
C1043       C  0.68226399  0.48311270  0.75424516    -0.09700
C1044       C  0.66211985  0.48746183  0.72952622    -0.18600
C1045       C  0.63258741  0.47636507  0.74437318     0.03800
C1046       C  0.62340962  0.95964394  0.78514044     0.18000
C1047       C  0.64379709  0.95542370  0.81054587    -0.20000
C1048       C  0.59542489  0.95165756  0.80281472    -0.21300
C1049       C  0.57471094  0.95499294  0.77784449    -0.19800
C1050       C  0.58165303  0.96707407  0.73489541     0.19400
C1051       C  0.61092639  0.47932085  0.71915131     0.01500
C1052       C  0.61762511  0.49467273  0.67818959    -0.14500
C1053       C  0.59546925  0.49502939  0.65287230    -0.12200
C1054       C  0.56589613  0.48071362  0.66752789     0.01100
C1055       C  0.56014088  0.96963304  0.70965224    -0.24400
H1056       H  0.70453182  0.49178929  0.74122171     0.09100
H1057       H  0.67030024  0.49915235  0.69850226     0.12600
H1058       H  0.63786206  0.94647295  0.84393048     0.11400
H1059       H  0.58932776  0.94232335  0.83595931     0.12600
H1060       H  0.55308951  0.94803762  0.79222949     0.11600
H1061       H  0.63970234  0.50631286  0.66434314     0.08700
H1062       H  0.60152408  0.50632805  0.62102252     0.11900
H1063       H  0.53804520  0.96157547  0.72304808     0.13800
C1064       C  0.76459926  0.45821799  0.31135127    -0.01700
C1065       C  0.77492742  0.43820503  0.30612718    -0.09700
C1066       C  0.79838249  0.44071411  0.33219901    -0.18600
C1067       C  0.81261327  0.46383784  0.36378133     0.03800
C1068       C  0.80299638  0.48499062  0.36689581     0.18000
C1069       C  0.77893212  0.48167435  0.34148989    -0.20000
C1070       C  0.81719960  0.50919948  0.39574535    -0.21300
C1071       C  0.84052855  0.51269628  0.42227759    -0.19800
C1072       C  0.84969890  0.49159924  0.42165935     0.19400
C1073       C  0.83577143  0.46670244  0.39266288     0.01500
C1074       C  0.84494286  0.44531543  0.39510879    -0.14500
C1075       C  0.86640391  0.44821561  0.42576834    -0.12200
C1076       C  0.88012697  0.47287019  0.45408854     0.01100
C1077       C  0.87206759  0.49479410  0.45108180    -0.24400
H1078       H  0.76417334  0.41997866  0.28286979     0.09100
H1079       H  0.80493043  0.42430478  0.32688668     0.12600
H1080       H  0.77124015  0.49746464  0.34516835     0.11400
H1081       H  0.81015730  0.52555480  0.39789312     0.12600
H1082       H  0.85096885  0.53166661  0.44432897     0.11600
H1083       H  0.83519874  0.42559141  0.37485434     0.08700
H1084       H  0.87205645  0.43084855  0.42767501     0.11900
H1085       H  0.88216308  0.51368704  0.47335060     0.13800
C1086       C  0.56580692  0.47692950  0.44447291    -0.02400
C1087       C  0.59354369  0.48452238  0.46241311    -0.09700
C1088       C  0.61431402  0.48096664  0.43827869    -0.18600
C1089       C  0.60819271  0.46945603  0.39477619     0.03800
C1090       C  0.58062199  0.46291151  0.37556771     0.18000
C1091       C  0.55960846  0.46657252  0.40053981    -0.20000
C1092       C  0.57429507  0.45263474  0.33173465    -0.21300
C1093       C  0.59485495  0.44906034  0.30657291    -0.19800
C1094       C  0.62202471  0.45497233  0.32487975     0.19400
C1095       C  0.62870236  0.46461620  0.36963040     0.01500
C1096       C  0.65555336  0.46874682  0.38757725    -0.14500
C1097       C  0.67550111  0.46478124  0.36179816    -0.12200
C1098       C  0.66970372  0.45652875  0.31705532     0.01100
C1099       C  0.64261092  0.45131650  0.29888124    -0.24400
H1100       H  0.59924298  0.49305887  0.49592021     0.09100
H1101       H  0.63505683  0.48765837  0.45473268     0.12600
H1102       H  0.53826997  0.46067333  0.38623450     0.11400
H1103       H  0.55339050  0.44754021  0.31667241     0.12600
H1104       H  0.58936459  0.44141090  0.27262784     0.11600
H1105       H  0.66179815  0.47479296  0.42166695     0.08700
H1106       H  0.69585258  0.46854070  0.37726462     0.11900
H1107       H  0.63748724  0.44438981  0.26457820     0.13800
C1108       C  0.70824593  0.44561971  0.93545124    -0.01700
C1109       C  0.68484827  0.44580720  0.95837443    -0.09700
C1110       C  0.68304632  0.44396827  0.00470098    -0.18600
C1111       C  0.70479022  0.44195815  0.03010285     0.03800
C1112       C  0.72772314  0.44037231  0.00675576     0.18000
C1113       C  0.72920822  0.44212866  0.96003455    -0.20000
C1114       C  0.74949085  0.43776941  0.03023014    -0.21300
C1115       C  0.74951202  0.43757089  0.07643789    -0.19800
C1116       C  0.72783028  0.44007997  0.10047805     0.19400
C1117       C  0.70495787  0.44201460  0.07771237     0.01500
C1118       C  0.68369439  0.44461176  0.10365245    -0.14500
C1119       C  0.68538262  0.44573861  0.15000115    -0.12200
C1120       C  0.70822418  0.44430455  0.17243054     0.01100
C1121       C  0.72922252  0.44116744  0.14721050    -0.24400
H1122       H  0.66806442  0.44809487  0.94054162     0.09100
H1123       H  0.66457010  0.44461885  0.01963004     0.12600
H1124       H  0.74726762  0.44158871  0.94293388     0.11400
H1125       H  0.76691154  0.43630291  0.01271652     0.12600
H1126       H  0.76692469  0.43591005  0.09350952     0.11600
H1127       H  0.66567988  0.44624639  0.08914716     0.08700
H1128       H  0.66882556  0.44820881  0.16828782     0.11900
H1129       H  0.74701891  0.43996935  0.16388613     0.13800
C1130       C  0.91186206  0.40094936  0.66729617    -0.01700
C1131       C  0.90961098  0.40841274  0.71124959    -0.09700
C1132       C  0.88624821  0.38829069  0.73877726    -0.18600
C1133       C  0.86445783  0.35989410  0.72306515     0.03800
C1134       C  0.86742298  0.35241021  0.67871304     0.18000
C1135       C  0.89081596  0.37273456  0.65166185    -0.20000
C1136       C  0.84679043  0.32476983  0.66110008    -0.21300
C1137       C  0.82290552  0.30430609  0.68638287    -0.19800
C1138       C  0.81902733  0.31091709  0.72997574     0.19400
C1139       C  0.83973413  0.33868162  0.74924915     0.01500
C1140       C  0.83454867  0.34385222  0.79363045    -0.14500
C1141       C  0.80976690  0.32243873  0.81749015    -0.12200
C1142       C  0.78928250  0.29524574  0.79797250     0.01100
C1143       C  0.79431210  0.28976080  0.75419558    -0.24400
H1144       H  0.92547513  0.43015864  0.72402168     0.09100
H1145       H  0.88561264  0.39567288  0.77196069     0.12600
H1146       H  0.89240288  0.36660611  0.61778559     0.11400
H1147       H  0.84902216  0.31898850  0.62731730     0.12600
H1148       H  0.80723314  0.28315614  0.67159457     0.11600
H1149       H  0.84919463  0.36425366  0.81069998     0.08700
H1150       H  0.80653007  0.32736881  0.85126441     0.11900
H1151       H  0.77886455  0.26883047  0.73860870     0.13800
C1152       C  0.69328746  0.20184384  0.79820370    -0.01700
C1153       C  0.66419092  0.19652257  0.79647606    -0.09700
C1154       C  0.64281844  0.17350166  0.77036098    -0.18600
C1155       C  0.64991243  0.15468018  0.74577896     0.03800
C1156       C  0.67909504  0.15917547  0.75007175     0.18000
C1157       C  0.70055575  0.18295730  0.77535318    -0.20000
C1158       C  0.68680754  0.14013242  0.72868357    -0.21300
C1159       C  0.66643997  0.11717746  0.70196597    -0.19800
C1160       C  0.63810882  0.11319240  0.69492217     0.19400
C1161       C  0.62935970  0.13184694  0.71672553     0.01500
C1162       C  0.60084210  0.12746605  0.70721431    -0.14500
C1163       C  0.58226195  0.10611213  0.67645392    -0.12200
C1164       C  0.59113937  0.08802003  0.65457513     0.01100
C1165       C  0.61886851  0.09126574  0.66494015    -0.24400
H1166       H  0.65820626  0.21082864  0.81434783     0.09100
H1167       H  0.62096842  0.17096423  0.77012733     0.12600
H1168       H  0.72301828  0.18681567  0.77735735     0.11400
H1169       H  0.70884709  0.14313662  0.73240599     0.12600
H1170       H  0.67321472  0.10296757  0.68563482     0.11600
H1171       H  0.59260976  0.14081195  0.72195042     0.08700
H1172       H  0.56093207  0.10407219  0.66933903     0.11900
H1173       H  0.62610479  0.07754995  0.64818174     0.13800
C1174       C  0.91122407  0.40212926  0.44253472    -0.01700
C1175       C  0.91070680  0.40842734  0.39736768    -0.09700
C1176       C  0.88667782  0.38904760  0.37047517    -0.18600
C1177       C  0.86239927  0.36264322  0.38812997     0.03800
C1178       C  0.86344579  0.35640478  0.43384505     0.18000
C1179       C  0.88754130  0.37588024  0.46014809    -0.20000
C1180       C  0.84031226  0.33080343  0.45350794    -0.21300
C1181       C  0.81598129  0.31098313  0.42875231    -0.19800
C1182       C  0.81413077  0.31622473  0.38366378     0.19400
C1183       C  0.83715605  0.34211264  0.36250166     0.01500
C1184       C  0.83377449  0.34605692  0.31678478    -0.14500
C1185       C  0.80882661  0.32496139  0.29319462    -0.12200
C1186       C  0.78639153  0.29932192  0.31430410     0.01100
C1187       C  0.78928507  0.29540621  0.35970955    -0.24400
H1188       H  0.92858609  0.42867247  0.38299872     0.09100
H1189       H  0.88757340  0.39538721  0.33615788     0.12600
H1190       H  0.88759643  0.37063468  0.49501762     0.11400
H1191       H  0.84103628  0.32604066  0.48839754     0.12600
H1192       H  0.79847878  0.29131692  0.44503342     0.11600
H1193       H  0.85010663  0.36513864  0.29837128     0.08700
H1194       H  0.80721773  0.32873273  0.25819447     0.11900
H1195       H  0.77219140  0.27582963  0.37672445     0.13800
C1196       C  0.69299048  0.20352644  0.31297464    -0.01700
C1197       C  0.70207406  0.18541401  0.33376717    -0.09700
C1198       C  0.68193984  0.16045096  0.35810224    -0.18600
C1199       C  0.65207983  0.15335553  0.36349860     0.03800
C1200       C  0.64300245  0.17193779  0.34216607     0.18000
C1201       C  0.66331949  0.19639093  0.31631928    -0.20000
C1202       C  0.61404394  0.16661057  0.34807597    -0.21300
C1203       C  0.59429058  0.14406299  0.37636246    -0.19800
C1204       C  0.60279937  0.12585039  0.39860108     0.19400
C1205       C  0.63137879  0.12943634  0.39105890     0.01500
C1206       C  0.63824124  0.10937901  0.41238121    -0.14500
C1207       C  0.61857145  0.08833079  0.44270286    -0.12200
C1208       C  0.59139968  0.08645434  0.45279375     0.01100
C1209       C  0.58322728  0.10462750  0.42938737    -0.24400
H1210       H  0.72498045  0.19069765  0.33124677     0.09100
H1211       H  0.69073529  0.14780882  0.37355332     0.12600
H1212       H  0.65641877  0.21065949  0.30038538     0.11400
H1213       H  0.60692689  0.18059566  0.33184109     0.12600
H1214       H  0.57235339  0.14113731  0.38139317     0.11600
H1215       H  0.65878123  0.10958697  0.40674754     0.08700
H1216       H  0.62518239  0.07409229  0.45937801     0.11900
H1217       H  0.56188657  0.10281408  0.43592362     0.13800
C1218       C  0.73172539  0.25756818  0.93743454    -0.01700
C1219       C  0.75013171  0.28441935  0.95930518    -0.09700
C1220       C  0.74957527  0.28625748  0.00552616    -0.18600
C1221       C  0.73076272  0.26101757  0.03168354     0.03800
C1222       C  0.71138969  0.23407990  0.00924330     0.18000
C1223       C  0.71188924  0.23266654  0.96269302    -0.20000
C1224       C  0.69211438  0.20846795  0.03340719    -0.21300
C1225       C  0.69205986  0.20881278  0.07952928    -0.19800
C1226       C  0.71138653  0.23473786  0.10266804     0.19400
C1227       C  0.73090093  0.26130345  0.07918183     0.01500
C1228       C  0.75021964  0.28671068  0.10433446    -0.14500
C1229       C  0.75066173  0.28552996  0.15065552    -0.12200
C1230       C  0.73168728  0.25918426  0.17361101     0.01100
C1231       C  0.71175611  0.23400328  0.14926254    -0.24400
H1232       H  0.76535647  0.30412774  0.94063369     0.09100
H1233       H  0.76447545  0.30767022  0.01976729     0.12600
H1234       H  0.69745815  0.21174167  0.94624790     0.11400
H1235       H  0.67722344  0.18788998  0.01651177     0.12600
H1236       H  0.67710813  0.18849672  0.09724460     0.11600
H1237       H  0.76566243  0.30773025  0.08922303     0.08700
H1238       H  0.76617423  0.30536375  0.16853938     0.11900
H1239       H  0.69700975  0.21338899  0.16649435     0.13800
C1240       C  0.71898351  0.72934401  0.29067055     0.79800
N1241       N  0.74222914  0.75205377  0.31179382    -0.78500
C1242       C  0.76267252  0.77655796  0.28941247     0.82300
N1243       N  0.75990087  0.77797085  0.24474459    -0.78400
C1244       C  0.73677553  0.75524964  0.22275030     0.82300
N1245       N  0.71625174  0.73098402  0.24603528    -0.80200
C1246       C  0.72164867  0.72198806  0.82242778     0.79800
N1247       N  0.71850873  0.72554218  0.86638075    -0.78500
C1248       C  0.74004487  0.74933645  0.88866660     0.82300
N1249       N  0.76458728  0.76993582  0.86622448    -0.78400
C1250       C  0.76800451  0.76674742  0.82215013     0.82300
N1251       N  0.74647857  0.74248716  0.80057413    -0.80200
C1252       C  0.73997366  0.95969027  0.28820403     0.79800
N1253       N  0.71887872  0.96214210  0.31106596    -0.78500
C1254       C  0.69444431  0.95936588  0.29056038     0.82300
N1255       N  0.69150845  0.95460931  0.24601481    -0.78400
C1256       C  0.71260969  0.95233174  0.22223477     0.82300
N1257       N  0.73675352  0.95466175  0.24371525    -0.80200
C1258       C  0.73883374  0.95787844  0.82103185     0.79800
N1259       N  0.71818037  0.96112048  0.79825932    -0.78500
C1260       C  0.69359012  0.95820167  0.81882183     0.82300
N1261       N  0.69014837  0.95259341  0.86324509    -0.78400
C1262       C  0.71085500  0.94961989  0.88684861     0.82300
N1263       N  0.73506016  0.95205280  0.86532839    -0.80200
C1264       C  0.00455352  0.74715461  0.28734293     0.79800
N1265       N  0.01004631  0.74993016  0.24288067    -0.78500
C1266       C  0.01223835  0.72837922  0.22031349     0.82300
N1267       N  0.00924998  0.70425827  0.24289293    -0.78400
C1268       C  0.00389098  0.70127082  0.28731110     0.82300
N1269       N  0.00129911  0.72273121  0.30909278    -0.80200
C1270       C  0.00174188  0.74509072  0.81909316     0.79800
N1271       N  0.00785024  0.74790699  0.86320669    -0.78500
C1272       C  0.00986118  0.72616960  0.88561356     0.82300
N1273       N  0.00617290  0.70177993  0.86310000    -0.78400
C1274       C  0.00013026  0.69884545  0.81889237     0.82300
N1275       N  0.99766718  0.72048827  0.79743271    -0.80200
O1276       O  0.92067322  0.49978866  0.50339639    -0.88600
C1277       C  0.57285449  0.56438356  0.62022742     1.11400
O1278       O  0.95731924  0.97725586  0.55455623    -1.36400
O1279       O  0.55329679  0.56893549  0.50494095    -0.90100
O1280       O  0.89664046  0.95006690  0.50628210    -0.90700
O1281       O  0.95874361  0.94760396  0.46018840    -0.79600
O1282       O  0.98714299  0.53450308  0.51225108    -1.01700
C1283       C  0.54466058  0.98149147  0.47365006     1.21500
O1284       O  0.99037206  0.94850266  0.55449470    -1.36500
Mn1285     Mn  0.98889887  0.97853265  0.60317053     1.82100
O1286       O  0.52107963  0.97989086  0.46036026    -0.78600
O1287       O  0.57931727  0.54532197  0.50626300    -0.88000
C1288       C  0.54402994  0.98082517  0.63607152     1.12600
C1289       C  0.57440489  0.56533707  0.49120255     1.07300
O1290       O  0.95826829  0.94663683  0.64868808    -0.79600
O1291       O  0.51908037  0.50862988  0.55453199    -1.33300
O1292       O  0.93232779  0.91906743  0.59604220    -0.98800
C1293       C  0.99308863  0.89519054  0.48856025     1.06000
Mn1294     Mn  0.56145920  0.51228336  0.55535470     1.48600
O1295       O  0.96803376  0.89015697  0.50324914    -0.88000
Mn1296     Mn  0.91613728  0.93670752  0.55536538     1.49600
O1297       O  0.92003901  0.99963549  0.60437417    -0.91900
C1298       C  0.98789062  0.53104908  0.47238854     1.19200
C1299       C  0.90090152  0.97448183  0.62036245     1.11300
Mn1300     Mn  0.98924539  0.97875104  0.50596339     1.81000
O1301       O  0.54806066  0.98143786  0.59618291    -0.97000
Mn1302     Mn  0.95326581  0.51525069  0.55334767     1.49300
C1303       C  0.89980575  0.97441933  0.49138551     1.07800
Mn1304     Mn  0.53093650  0.94802095  0.55443021     1.49900
C1305       C  0.99236089  0.89384991  0.61749661     1.10700
O1306       O  0.93234398  0.92022989  0.51295116    -1.02800
O1307       O  0.57831663  0.54478868  0.60506011    -0.92500
C1308       C  0.93564113  0.92473123  0.47310409     1.22000
O1309       O  0.54828054  0.98186019  0.51355058    -1.03200
O1310       O  0.55224935  0.56828611  0.60498000    -0.90600
O1311       O  0.51720498  0.91519399  0.60411789    -0.90200
O1312       O  0.89765617  0.94994831  0.60627391    -0.90200
Mn1313     Mn  0.52029751  0.55006790  0.55427733     1.47900
O1314       O  0.52038784  0.97933017  0.64903032    -0.78700
C1315       C  0.93604779  0.92293983  0.63593271     1.15000
O1316       O  0.98893286  0.50857021  0.45976209    -0.77400
O1317       O  0.98778000  0.50844208  0.64845553    -0.77100
Mn1318     Mn  0.95189134  0.90596408  0.55348110     1.51100
O1319       O  0.51774562  0.91574630  0.50375118    -0.89400
O1320       O  0.98640954  0.53412356  0.59507424    -0.96900
O1321       O  0.96758134  0.88861124  0.60171918    -0.91900
C1322       C  0.98647537  0.53064005  0.63502806     1.12800
C1323       C  0.98546138  0.55277399  0.66487241    -0.01700
C1324       C  0.97448879  0.57048163  0.64787462    -0.09700
C1325       C  0.97515080  0.59329687  0.67274526    -0.18600
C1326       C  0.98717408  0.59963041  0.71595582     0.03800
C1327       C  0.99804745  0.58149293  0.73361710     0.18000
C1328       C  0.49685114  0.55806361  0.70819273    -0.20000
C1329       C  0.51052100  0.58727797  0.77616292    -0.21300
C1330       C  0.51264747  0.61078233  0.80131412    -0.19800
C1331       C  0.00230835  0.62913680  0.78467223     0.19400
C1332       C  0.98921411  0.62363304  0.74183218     0.01500
C1333       C  0.97900189  0.64263059  0.72647432    -0.14500
C1334       C  0.98236419  0.66646848  0.75188803    -0.12200
C1335       C  0.99574943  0.67232361  0.79378404     0.01100
C1336       C  0.00530481  0.65321447  0.81030705    -0.24400
H1337       H  0.96546180  0.56685208  0.61460191     0.09100
H1338       H  0.96642392  0.60579467  0.65670163     0.12600
H1339       H  0.50569619  0.54470361  0.72146749     0.11400
H1340       H  0.51895050  0.57369520  0.78994484     0.12600
H1341       H  0.52265043  0.61476214  0.83393334     0.11600
H1342       H  0.96843326  0.63989714  0.69478781     0.08700
H1343       H  0.97436240  0.68047245  0.73836708     0.11900
H1344       H  0.51566851  0.65742550  0.84269535     0.13800
C1345       C  0.99806228  0.76762448  0.79459031    -0.01700
C1346       C  0.97436431  0.75818204  0.76507881    -0.09700
C1347       C  0.97134470  0.77855566  0.73877248    -0.18600
C1348       C  0.99256341  0.80927739  0.74024134     0.03800
C1349       C  0.51670118  0.81884134  0.77027000     0.18000
C1350       C  0.51886006  0.79806486  0.79789048    -0.20000
C1351       C  0.53898745  0.84887941  0.77135539    -0.21300
C1352       C  0.53835555  0.86941324  0.74217750    -0.19800
C1353       C  0.51498799  0.86059345  0.71201580     0.19400
C1354       C  0.99125302  0.83058452  0.71174391     0.01500
C1355       C  0.96735365  0.82306466  0.68250520    -0.14500
C1356       C  0.96770095  0.84397280  0.65323082    -0.12200
C1357       C  0.99185925  0.87308806  0.65164920     0.01100
C1358       C  0.51532040  0.88143782  0.68164313    -0.24400
H1359       H  0.95810057  0.73472728  0.76210035     0.09100
H1360       H  0.95267857  0.76931888  0.71652528     0.12600
H1361       H  0.53748497  0.80536991  0.82033641     0.11400
H1362       H  0.55747609  0.85639741  0.79408799     0.12600
H1363       H  0.55637162  0.89230600  0.74300858     0.11600
H1364       H  0.94796099  0.80118972  0.68136876     0.08700
H1365       H  0.94915019  0.83696985  0.63076990     0.11900
H1366       H  0.53385905  0.90409366  0.68124009     0.13800
C1367       C  0.98832690  0.55367577  0.44152498    -0.01700
C1368       C  0.99529094  0.55480345  0.39631774    -0.09700
C1369       C  0.99739166  0.57777249  0.36896064    -0.18600
C1370       C  0.99253255  0.60038651  0.38616908     0.03800
C1371       C  0.48502599  0.59865928  0.43190721     0.18000
C1372       C  0.48288886  0.57557381  0.45866882    -0.20000
C1373       C  0.48006175  0.62024375  0.45116751    -0.21300
C1374       C  0.48274454  0.64391159  0.42617541    -0.19800
C1375       C  0.49029141  0.64655919  0.38116347     0.19400
C1376       C  0.99509076  0.62480210  0.36020735     0.01500
C1377       C  0.00237283  0.62868785  0.31444443    -0.14500
C1378       C  0.00501746  0.65323514  0.29083279    -0.12200
C1379       C  0.00060513  0.67480786  0.31191095     0.01100
C1380       C  0.49313182  0.67106654  0.35716072    -0.24400
H1381       H  0.99970252  0.53824854  0.38225060     0.09100
H1382       H  0.00320134  0.57748765  0.33466639     0.12600
H1383       H  0.47729758  0.57495137  0.49352088     0.11400
H1384       H  0.47430503  0.61896627  0.48603112     0.12600
H1385       H  0.47897315  0.66036089  0.44227751     0.11600
H1386       H  0.00619003  0.61314265  0.29605974     0.08700
H1387       H  0.01074219  0.65537679  0.25590556     0.11900
H1388       H  0.48947989  0.68735788  0.37405082     0.13800
C1389       C  0.99298412  0.87476111  0.45399449    -0.01700
C1390       C  0.96913992  0.84544760  0.45286994    -0.09700
C1391       C  0.96910372  0.82461426  0.42384781    -0.18600
C1392       C  0.99295374  0.83239312  0.39418001     0.03800
C1393       C  0.51612267  0.86265441  0.39278019     0.18000
C1394       C  0.51633804  0.88341149  0.42329769    -0.20000
C1395       C  0.53893137  0.87175509  0.36121829    -0.21300
C1396       C  0.53949972  0.85130987  0.33179038    -0.19800
C1397       C  0.51802644  0.82098675  0.33444373     0.19400
C1398       C  0.99465524  0.81110779  0.36617448     0.01500
C1399       C  0.97472244  0.78014673  0.37001606    -0.14500
C1400       C  0.97803746  0.75988017  0.34391909    -0.12200
C1401       C  0.00070662  0.76957381  0.31219151     0.01100
C1402       C  0.52032820  0.80026276  0.30685119    -0.24400
H1403       H  0.95062074  0.83819638  0.47566245     0.09100
H1404       H  0.94990969  0.80258946  0.42525887     0.12600
H1405       H  0.53459246  0.90620483  0.42313928     0.11400
H1406       H  0.55647661  0.89482568  0.35932047     0.12600
H1407       H  0.55745202  0.85911825  0.30781420     0.11600
H1408       H  0.95703681  0.77074046  0.39419821     0.08700
H1409       H  0.96275979  0.73630505  0.34875813     0.11900
H1410       H  0.53826191  0.80787626  0.28285138     0.13800
C1411       C  0.01610679  0.73003163  0.17117579    -0.01700
C1412       C  0.01945898  0.70826514  0.14875723    -0.09700
C1413       C  0.02073678  0.70796744  0.10247789    -0.18600
C1414       C  0.01852939  0.72949238  0.07659409     0.03800
C1415       C  0.51631633  0.75225327  0.09934734     0.18000
C1416       C  0.51515125  0.75234880  0.14608900    -0.20000
C1417       C  0.51475751  0.77450466  0.07527141    -0.21300
C1418       C  0.51466819  0.77427573  0.02906626    -0.19800
C1419       C  0.01583979  0.75163027  0.00568330     0.19400
C1420       C  0.01794397  0.72897319  0.02906970     0.01500
C1421       C  0.01859736  0.70637618  0.00385208    -0.14500
C1422       C  0.01662133  0.70597393  0.95759708    -0.12200
C1423       C  0.01411976  0.72808524  0.93459430     0.01100
C1424       C  0.01421471  0.75114112  0.95901967    -0.24400
H1425       H  0.02069561  0.69094647  0.16701526     0.09100
H1426       H  0.02319925  0.69039503  0.08802853     0.12600
H1427       H  0.51280259  0.76949737  0.16282511     0.11400
H1428       H  0.51329285  0.79206930  0.09230776     0.12600
H1429       H  0.51315248  0.79168244  0.01148897     0.11600
H1430       H  0.02004467  0.68832416  0.01884968     0.08700
H1431       H  0.01665673  0.68789437  0.93984965     0.11900
H1432       H  0.51222973  0.76840397  0.94185393     0.13800
C1433       C  0.88065168  0.97370434  0.65574019    -0.01700
C1434       C  0.86799139  0.95034034  0.68667471    -0.09700
C1435       C  0.84696351  0.94837502  0.71766518    -0.18600
C1436       C  0.83721761  0.96937848  0.71779494     0.03800
C1437       C  0.85039043  0.99315873  0.68650479     0.18000
C1438       C  0.87227895  0.99545433  0.65674135    -0.20000
C1439       C  0.84087935  0.01395364  0.68388163    -0.21300
C1440       C  0.81769927  0.01102941  0.71040940    -0.19800
C1441       C  0.80393815  0.98768315  0.74108528     0.19400
C1442       C  0.81410997  0.96707647  0.74644347     0.01500
C1443       C  0.80030281  0.94488195  0.77971198    -0.14500
C1444       C  0.77659571  0.94255597  0.80507411    -0.12200
C1445       C  0.76560280  0.96184016  0.79754241     0.01100
C1446       C  0.77967320  0.98458307  0.76593806    -0.24400
H1447       H  0.87416879  0.93331154  0.68662384     0.09100
H1448       H  0.83798112  0.92960971  0.74005315     0.12600
H1449       H  0.88172113  0.01345629  0.63264604     0.11400
H1450       H  0.85085426  0.03214161  0.66017222     0.12600
H1451       H  0.81029875  0.02702777  0.70661659     0.11600
H1452       H  0.80729859  0.92899696  0.78679441     0.08700
H1453       H  0.76617194  0.92498473  0.82965311     0.11900
H1454       H  0.77160236  0.99994414  0.76060924     0.13800
C1455       C  0.67158428  0.96232150  0.79281472    -0.01700
C1456       C  0.67853160  0.97333050  0.74926314    -0.09700
C1457       C  0.65880776  0.97800140  0.72413059    -0.18600
C1458       C  0.63099318  0.97167670  0.74151114     0.03800
C1459       C  0.62417593  0.46088980  0.78561793     0.18000
C1460       C  0.64494984  0.45716121  0.81070224    -0.20000
C1461       C  0.59491507  0.44870354  0.80106731    -0.21300
C1462       C  0.57365796  0.45099804  0.77601043    -0.19800
C1463       C  0.58115218  0.46590262  0.73507700     0.19400
C1464       C  0.61023346  0.97624607  0.71665807     0.01500
C1465       C  0.61686831  0.98960819  0.67417817    -0.14500
C1466       C  0.59551402  0.99190576  0.64964856    -0.12200
C1467       C  0.56675441  0.98130852  0.66633179     0.01100
C1468       C  0.55896256  0.46687700  0.70936827    -0.24400
H1469       H  0.69956799  0.97864525  0.73428293     0.09100
H1470       H  0.66591244  0.98617318  0.69086778     0.12600
H1471       H  0.63818413  0.44515950  0.84197371     0.11400
H1472       H  0.58826456  0.43681271  0.83242175     0.12600
H1473       H  0.55110060  0.44075369  0.78854427     0.11600
H1474       H  0.63836384  0.99848303  0.65874820     0.08700
H1475       H  0.60151731  0.00170600  0.61675869     0.11900
H1476       H  0.53614685  0.45576774  0.72099528     0.13800
C1477       C  0.76637673  0.96340132  0.31223719    -0.01700
C1478       C  0.77778213  0.94449514  0.30458314    -0.09700
C1479       C  0.80060934  0.94612071  0.33123544    -0.18600
C1480       C  0.81309453  0.96723575  0.36592211     0.03800
C1481       C  0.80262919  0.98757626  0.37140803     0.18000
C1482       C  0.77919935  0.98511520  0.34531198    -0.20000
C1483       C  0.81534914  0.01008895  0.40326820    -0.21300
C1484       C  0.83812904  0.01272618  0.43028834    -0.19800
C1485       C  0.84805748  0.99228018  0.42722902     0.19400
C1486       C  0.83542232  0.96892935  0.39548268     0.01500
C1487       C  0.84498035  0.94779015  0.39588024    -0.14500
C1488       C  0.86596683  0.94971012  0.42671075    -0.12200
C1489       C  0.87878897  0.97317215  0.45717451     0.01100
C1490       C  0.86999323  0.99460328  0.45673139    -0.24400
H1491       H  0.76828818  0.92769324  0.27896647     0.09100
H1492       H  0.80809969  0.93066003  0.32389848     0.12600
H1493       H  0.77078316  0.00016977  0.35083557     0.11400
H1494       H  0.80764619  0.02582888  0.40728339     0.12600
H1495       H  0.84754290  0.03046606  0.45454967     0.11600
H1496       H  0.83592936  0.92900838  0.37372705     0.08700
H1497       H  0.87216456  0.93270463  0.42677540     0.11900
H1498       H  0.87932451  0.01247485  0.48082570     0.13800
C1499       C  0.56747098  0.98173079  0.44385399    -0.02400
C1500       C  0.59549837  0.99032038  0.46160262    -0.09700
C1501       C  0.61667567  0.98757134  0.43728793    -0.18600
C1502       C  0.61060640  0.97586758  0.39390096     0.03800
C1503       C  0.58286073  0.96875142  0.37474020     0.18000
C1504       C  0.56148868  0.97165501  0.39983645    -0.20000
C1505       C  0.57661054  0.95843863  0.33094589    -0.21300
C1506       C  0.59729322  0.95504275  0.30590098    -0.19800
C1507       C  0.62449032  0.96118159  0.32432930     0.19400
C1508       C  0.63122781  0.97117146  0.36892285     0.01500
C1509       C  0.65813912  0.97556175  0.38699445    -0.14500
C1510       C  0.67801666  0.97135427  0.36149107    -0.12200
C1511       C  0.67206517  0.96263426  0.31694531     0.01100
C1512       C  0.64499951  0.95730318  0.29862774    -0.24400
H1513       H  0.60103820  0.99884411  0.49513845     0.09100
H1514       H  0.63760158  0.99487610  0.45355811     0.12600
H1515       H  0.53996611  0.96516708  0.38567020     0.11400
H1516       H  0.55560711  0.95302413  0.31590748     0.12600
H1517       H  0.59182069  0.94721659  0.27203106     0.11600
H1518       H  0.66443884  0.98191085  0.42098864     0.08700
H1519       H  0.69840547  0.97525954  0.37700819     0.11900
H1520       H  0.63980775  0.95004538  0.26446376     0.13800
C1521       C  0.70824745  0.94609089  0.93607793    -0.01700
C1522       C  0.68453376  0.94574629  0.95883443    -0.09700
C1523       C  0.68328002  0.94506863  0.00525938    -0.18600
C1524       C  0.70591220  0.94480655  0.03083935     0.03800
C1525       C  0.72940406  0.94416148  0.00767168     0.18000
C1526       C  0.73030939  0.94470632  0.96095773    -0.20000
C1527       C  0.75223007  0.94355354  0.03124224    -0.21300
C1528       C  0.75259154  0.94414275  0.07739407    -0.19800
C1529       C  0.73017879  0.94543388  0.10126459     0.19400
C1530       C  0.70637513  0.94558564  0.07842575     0.01500
C1531       C  0.68441678  0.94702503  0.10427191    -0.14500
C1532       C  0.68629460  0.94868558  0.15059830    -0.12200
C1533       C  0.71001324  0.94893192  0.17303554     0.01100
C1534       C  0.73173069  0.94700342  0.14791704    -0.24400
H1535       H  0.66700951  0.94657106  0.94074756     0.09100
H1536       H  0.66447620  0.94513152  0.02010468     0.12600
H1537       H  0.74871783  0.94474484  0.94402494     0.11400
H1538       H  0.77014370  0.94293003  0.01382808     0.12600
H1539       H  0.77075814  0.94392915  0.09454626     0.11600
H1540       H  0.66566154  0.94724877  0.08969533     0.08700
H1541       H  0.66913868  0.95015443  0.16885075     0.11900
H1542       H  0.75022117  0.94714183  0.16460185     0.13800
C1543       C  0.91395563  0.90031869  0.66691650    -0.01700
C1544       C  0.91198794  0.90669172  0.71154871    -0.09700
C1545       C  0.88939066  0.88550746  0.73909307    -0.18600
C1546       C  0.86808607  0.85709629  0.72271912     0.03800
C1547       C  0.87075660  0.85071375  0.67764553     0.18000
C1548       C  0.89338188  0.87210753  0.65056114    -0.20000
C1549       C  0.85058551  0.82309763  0.65940609    -0.21300
C1550       C  0.82738502  0.80162950  0.68474746    -0.19800
C1551       C  0.82371008  0.80718842  0.72902252     0.19400
C1552       C  0.84407017  0.83486233  0.74893076     0.01500
C1553       C  0.83920605  0.83899733  0.79393602    -0.14500
C1554       C  0.81492427  0.81682897  0.81770258    -0.12200
C1555       C  0.79459798  0.78979928  0.79757472     0.01100
C1556       C  0.79946941  0.78517722  0.75324684    -0.24400
H1557       H  0.92750809  0.92836015  0.72493738     0.09100
H1558       H  0.88896211  0.89209020  0.77286425     0.12600
H1559       H  0.89475582  0.86678660  0.61614803     0.11400
H1560       H  0.85261350  0.81813175  0.62507549     0.12600
H1561       H  0.81202603  0.78056516  0.66943559     0.11600
H1562       H  0.85365991  0.85920970  0.81156028     0.08700
H1563       H  0.81188468  0.82111952  0.85191860     0.11900
H1564       H  0.78417108  0.76438169  0.73719457     0.13800
C1565       C  0.69796976  0.69636168  0.79830535    -0.01700
C1566       C  0.66876675  0.69084621  0.79926779    -0.09700
C1567       C  0.64658402  0.66785854  0.77403774    -0.18600
C1568       C  0.65292961  0.64922230  0.74760158     0.03800
C1569       C  0.68228236  0.65385981  0.74913903     0.18000
C1570       C  0.70453303  0.67760751  0.77361572    -0.20000
C1571       C  0.68938558  0.63504449  0.72570082    -0.21300
C1572       C  0.66831634  0.61240473  0.69927485    -0.19800
C1573       C  0.63981194  0.60846313  0.69469768     0.19400
C1574       C  0.63153199  0.62660218  0.71904987     0.01500
C1575       C  0.60263678  0.62205345  0.71227718    -0.14500
C1576       C  0.58344030  0.60143902  0.68110603    -0.12200
C1577       C  0.59203448  0.58417991  0.65631835     0.01100
C1578       C  0.61995958  0.58721614  0.66448118    -0.24400
H1579       H  0.66327216  0.70497262  0.81863874     0.09100
H1580       H  0.62472753  0.66524891  0.77584713     0.12600
H1581       H  0.72704768  0.68151514  0.77358248     0.11400
H1582       H  0.71153517  0.63809234  0.72737864     0.12600
H1583       H  0.67469003  0.59849411  0.68109993     0.11600
H1584       H  0.59458956  0.63480074  0.72943434     0.08700
H1585       H  0.56189034  0.59934203  0.67592932     0.11900
H1586       H  0.62692155  0.57400123  0.64565131     0.13800
C1587       C  0.91182400  0.90414700  0.44270119    -0.01700
C1588       C  0.91194243  0.91000619  0.39722205    -0.09700
C1589       C  0.88789877  0.89077991  0.37026602    -0.18600
C1590       C  0.86301989  0.86503771  0.38824575     0.03800
C1591       C  0.86335755  0.85943003  0.43439296     0.18000
C1592       C  0.88741998  0.87872255  0.46070731    -0.20000
C1593       C  0.83966287  0.83451172  0.45444884    -0.21300
C1594       C  0.81558394  0.81452979  0.42955178    -0.19800
C1595       C  0.81455254  0.81900431  0.38399215     0.19400
C1596       C  0.83796530  0.84440230  0.36249124     0.01500
C1597       C  0.83521361  0.84762881  0.31631154    -0.14500
C1598       C  0.81069089  0.82600538  0.29251374    -0.12200
C1599       C  0.78814045  0.80064016  0.31397854     0.01100
C1600       C  0.79020403  0.79774521  0.35989227    -0.24400
H1601       H  0.93041982  0.92968176  0.38259172     0.09100
H1602       H  0.88932795  0.89660595  0.33561377     0.12600
H1603       H  0.88694145  0.87389569  0.49586144     0.11400
H1604       H  0.83984734  0.83029622  0.48968524     0.12600
H1605       H  0.79770626  0.79525768  0.44605324     0.11600
H1606       H  0.85178101  0.86645045  0.29770607     0.08700
H1607       H  0.80959251  0.82902643  0.25712317     0.11900
H1608       H  0.77291432  0.77848562  0.37724991     0.13800
C1609       C  0.69783167  0.70285679  0.31663209    -0.01700
C1610       C  0.70848578  0.69312877  0.35167446    -0.09700
C1611       C  0.68910713  0.66938243  0.37866656    -0.18600
C1612       C  0.65806014  0.65485964  0.37215871     0.03800
C1613       C  0.64721185  0.66521019  0.33716415     0.18000
C1614       C  0.66715526  0.68849473  0.30901443    -0.20000
C1615       C  0.61654582  0.65287190  0.33146073    -0.21300
C1616       C  0.59645557  0.63107453  0.36050735    -0.19800
C1617       C  0.60647725  0.62018696  0.39490823     0.19400
C1618       C  0.63741045  0.63117071  0.40014115     0.01500
C1619       C  0.64634951  0.61796426  0.43320037    -0.14500
C1620       C  0.62559253  0.59585109  0.46122049    -0.12200
C1621       C  0.59533534  0.58645206  0.45789523     0.01100
C1622       C  0.58582521  0.59850846  0.42436769    -0.24400
H1623       H  0.73209277  0.70407805  0.35838096     0.09100
H1624       H  0.69908812  0.66362716  0.40531346     0.12600
H1625       H  0.65876198  0.69636792  0.28250629     0.11400
H1626       H  0.60804796  0.66070603  0.30507219     0.12600
H1627       H  0.57290130  0.62258473  0.35591966     0.11600
H1628       H  0.66920944  0.62404666  0.43801993     0.08700
H1629       H  0.63341647  0.58671854  0.48669949     0.11900
H1630       H  0.56234893  0.59094531  0.42116688     0.13800
C1631       C  0.73741135  0.75218337  0.93730894    -0.01700
C1632       C  0.75598577  0.77912444  0.95887602    -0.09700
C1633       C  0.75503723  0.78143275  0.00499642    -0.18600
C1634       C  0.73563238  0.75658687  0.03142931     0.03800
C1635       C  0.71633371  0.72948362  0.00932160     0.18000
C1636       C  0.71719563  0.72761489  0.96282572    -0.20000
C1637       C  0.69675281  0.70415497  0.03380051    -0.21300
C1638       C  0.69636949  0.70491208  0.07992193    -0.19800
C1639       C  0.71549958  0.73104118  0.10279084     0.19400
C1640       C  0.73515763  0.75739226  0.07892843     0.01500
C1641       C  0.75391689  0.78315964  0.10376075    -0.14500
C1642       C  0.75389416  0.78247600  0.15012959    -0.12200
C1643       C  0.73503677  0.75626156  0.17355757     0.01100
C1644       C  0.71549432  0.73075180  0.14949283    -0.24400
H1645       H  0.77159042  0.79856896  0.94004551     0.09100
H1646       H  0.77015604  0.80287055  0.01896651     0.12600
H1647       H  0.70269039  0.70660494  0.94664840     0.11400
H1648       H  0.68192404  0.68344362  0.01716863     0.12600
H1649       H  0.68125161  0.68477085  0.09786730     0.11600
H1650       H  0.76919659  0.80413683  0.08838009     0.08700
H1651       H  0.76903189  0.80263161  0.16768481     0.11900
H1652       H  0.70073998  0.71028989  0.16705632     0.13800
loop_ 
_geom_bond_atom_site_label_1 
_geom_bond_atom_site_label_2 
_geom_bond_distance 
_geom_bond_site_symmetry_2 
_ccdc_geom_bond_type 
C1            N2   1.356       .  A
C1            N6   1.355       .  A
C1          C370   1.469       .  S
N2            C3   1.360       .  A
C3            N4   1.361       .  A
C3          C360   1.490       .  S
N4            C5   1.363       .  A
C5            N6   1.360       .  A
C5          C404   1.484       .  S
C7            N8   1.357       .  A
C7           N12   1.357       .  A
C7          C326   1.473       .  S
N8            C9   1.361       .  A
C9           N10   1.362       .  A
C9          C392   1.484       .  S
N10          C11   1.360       .  A
C11          N12   1.360       .  A
C11         C316   1.489       .  S
C13          N14   1.356       .  A
C13          N18   1.360       .  A
C13         C238   1.480       .  S
N14          C15   1.358       .  A
C15          N16   1.361       .  A
C15         C272   1.492       .  S
N16          C17   1.366       .  A
C17          N18   1.366       .  A
C17         C294   1.493       .  S
C19          N20   1.358       .  A
C19          N24   1.361       .  A
C19         C206   1.481       .  S
N20          C21   1.359       .  A
C21          N22   1.360       .  A
C21         C216   1.489       .  S
N22          C23   1.364       .  A
C23          N24   1.364       .  A
C23         C282   1.492       .  S
C25          N26   1.363       .  A
C25          N30   1.358       .  A
C25         C162   1.481       .  S
N26          C27   1.366       .  A
C27          N28   1.361       .  A
C27         C172   1.489       .  S
N28          C29   1.355       .  A
C29          N30   1.356       .  A
C29         C140   1.484       .  S
C31          N32   1.357       .  A
C31          N36   1.353       .  A
C31         C106   1.472       .  S
N32          C33   1.363       .  A
C33          N34   1.364       .  A
C33         C184   1.487       .  S
N34          C35   1.360       .  A
C35          N36   1.357       .  A
C35          C96   1.486       .  S
O37         Mn63   2.095   1_565  S
O37         C477   1.272       .  A
C38         C338   1.488       .  S
C38          O71   1.272       .  A
C38          O68   1.274       .  A
O39         Mn46   2.179       .  S
O39         Mn57   2.124       .  S
O39         Mn61   2.181       .  S
O39        Mn476   2.121       .  S
O40         Mn74   2.091       .  S
O40          C50   1.272       .  A
O41         Mn57   2.093       .  S
O41          C64   1.271       .  A
O42         Mn61   2.123       .  S
O42          C69   1.255       .  A
O43         Mn63   1.960       .  S
O43        Mn900   1.961       .  S
O43          C59   1.219       .  S
C44         C260   1.487       .  S
C44          O47   1.257       .  A
C44          O70   1.217       .  S
O45         Mn46   2.177       .  S
O45         Mn79   2.116       .  S
O45         Mn61   2.177       .  S
O45        Mn891   2.125       .  S
Mn46         O51   2.116       .  S
Mn46        O901   2.127       .  S
Mn46        O491   2.128       .  S
Mn46       O1291   2.173       .  S
O47        Mn887   2.133   1_455  S
O48         Mn55   2.093       .  S
O48          C50   1.273       .  A
C49         C228   1.483       .  S
C49          O75   1.255       .  A
C49          O62   1.217       .  S
C50         C382   1.483       .  S
O51          C76   1.254       .  A
O52         Mn55   2.115       .  S
O52         Mn74   2.122       .  S
O52       Mn1285   2.172   1_445  S
O52       Mn1300   2.170   1_445  S
O53         Mn57   1.956       .  S
O53         Mn79   1.962       .  S
O53          C76   1.219       .  S
C54         C150   1.486       .  S
C54          O56   1.273       .  A
C54         O906   1.274       .  A
Mn55         O68   2.104       .  S
Mn55        O483   1.957   1_545  S
Mn55        O475   1.959   1_545  S
O56         Mn79   2.093       .  S
Mn57         O73   2.096       .  S
Mn57         O67   1.952       .  S
O58        Mn476   2.103       .  S
O58          C60   1.274       .  A
C59         C128   1.478       .  S
C59          O77   1.252       .  A
C60         C194   1.485       .  S
C60          O73   1.272       .  A
Mn61        O873   2.133       .  S
Mn61        O490   2.128       .  S
Mn61       O1291   2.175       .  S
O62         Mn65   1.962       .  S
O62        Mn468   1.956       .  S
Mn63        O471   2.097   1_545  S
Mn63        O452   2.121   1_545  S
Mn63         O81   1.952       .  S
C64         C250   1.485       .  S
C64         O450   1.274       .  A
Mn65         O72   2.102       .  S
Mn65         O80   2.108       .  S
Mn65        O871   2.125   1_455  S
Mn65         O70   1.956       .  S
C66         C118   1.483       .  S
C66          O82   1.271       .  A
C66         O898   1.274       .  A
O67         Mn79   1.959       .  S
O67          C69   1.218       .  S
C69         C348   1.486       .  S
O70        Mn468   1.962       .  S
O71         Mn74   2.093       .  S
O72         C892   1.274   1_455  A
Mn74        O869   1.961   1_455  S
Mn74        O907   1.952   1_455  S
O75        Mn872   2.127   1_455  S
C76         C304   1.484       .  S
O77        Mn474   2.106   1_545  S
O78        Mn459   2.119   1_545  S
O78          C83   1.255       .  A
Mn79         O82   2.086       .  S
O80         C880   1.274   1_455  A
O81        Mn900   1.952       .  S
O81          C83   1.217       .  S
C83          C84   1.477       .  S
C84          C85   1.400       .  A
C84         C915   1.402       .  A
C85          C86   1.387       .  A
C85          H98   1.084       .  S
C86          C87   1.411       .  A
C86          H99   1.076       .  S
C87          C93   1.427       .  A
C87          C88   1.423       .  A
C88         C916   1.401       .  A
C88         C915   1.412       .  A
C89         C910   1.402       .  A
C89         C914   1.412       .  A
C89         H100   1.084   1_655  S
C90          C91   1.395       .  A
C90         C914   1.401   1_455  A
C90         H101   1.084       .  S
C91         C918   1.402       .  A
C91         H102   1.084       .  S
C92          C93   1.421       .  A
C92          C97   1.411       .  A
C92         C917   1.402       .  A
C93          C94   1.412       .  A
C94          C95   1.390       .  A
C94         H103   1.076       .  S
C95          C96   1.401       .  A
C95         H104   1.083       .  S
C96          C97   1.406       .  A
C97         H931   1.084       .  S
H105        C923   1.084       .  S
C106        C107   1.398       .  A
C106        C937   1.399       .  A
C107        C108   1.395       .  A
C107        H120   1.084       .  S
C108        C109   1.415       .  A
C108        H121   1.077       .  S
C109        C115   1.430       .  A
C109        C936   1.423       .  A
C110        C112   1.400       .  A
C110        C111   1.407       .  A
C110        C935   1.423   1_455  A
C111        C932   1.399   1_455  A
C111        H122   1.085       .  S
C112        C113   1.391       .  A
C112        H123   1.084       .  S
C113        C114   1.400       .  A
C113        H124   1.084       .  S
C114        C119   1.407       .  A
C114        C941   1.423   1_455  A
C115        C116   1.414       .  A
C115        C940   1.423       .  A
C116        C117   1.395       .  A
C116        H125   1.077       .  S
C117        C118   1.402       .  A
C117        H126   1.083       .  S
C118        C945   1.403       .  A
C119        C944   1.403   1_455  A
C119        H127   1.085       .  S
C128        C129   1.400       .  A
C128        C959   1.400       .  A
C129        C130   1.402       .  A
C129        H142   1.083       .  S
C130        C131   1.418       .  A
C130        H143   1.078       .  S
C131        C137   1.432       .  A
C131        C958   1.422       .  A
C132        C134   1.398       .  A
C132        C133   1.399       .  A
C132        C957   1.422       .  A
C133        C954   1.400       .  A
C133        H144   1.085       .  S
C134        C135   1.386       .  A
C134        H145   1.084       .  S
C135        C136   1.398       .  A
C135        H146   1.084       .  S
C136        C141   1.402       .  A
C136        C963   1.423       .  A
C137        C138   1.415       .  A
C137        C962   1.423       .  A
C138        C139   1.400       .  A
C138        H147   1.078       .  S
C139        C140   1.403       .  A
C139        H148   1.083       .  S
C140        C967   1.400       .  A
C141        C966   1.400       .  A
C141        H149   1.084       .  S
C150        C151   1.401       .  A
C150        C981   1.406       .  A
C151        C152   1.394       .  A
C151        H164   1.083       .  S
C152        C153   1.413       .  A
C152        H165   1.077       .  S
C153        C159   1.431       .  A
C153        C980   1.422       .  A
C154        C156   1.402       .  A
C154        C155   1.413       .  A
C154        C979   1.422   1_455  A
C155        C976   1.406   1_455  A
C155        H166   1.084       .  S
C156        C157   1.396       .  A
C156        H167   1.084       .  S
C157        C158   1.402       .  A
C157        H168   1.084       .  S
C158        C163   1.414       .  A
C158        C985   1.423   1_455  A
C159        C160   1.414       .  A
C159        C984   1.423       .  A
C160        C161   1.394       .  A
C160        H169   1.077       .  S
C161        C162   1.399       .  A
C161        H170   1.084       .  S
C162        C989   1.404       .  A
C163        C988   1.404   1_455  A
C163        H171   1.084       .  S
C172        C173   1.404       .  A
C172       C1003   1.404       .  A
C173        C174   1.394       .  A
C173        H186   1.083       .  S
C174        C175   1.412       .  A
C174        H187   1.077       .  S
C175        C181   1.431       .  A
C175       C1002   1.423       .  A
C176        C178   1.400       .  A
C176        C177   1.410       .  A
C176       C1001   1.423       .  A
C177        C998   1.404       .  A
C177        H188   1.084       .  S
C178        C179   1.391       .  A
C178        H189   1.084       .  S
C179       C1006   1.400       .  A
C179        H190   1.084       .  S
C180        C181   1.421       .  A
C180        C185   1.406   1_554  A
C180       C1005   1.400       .  A
C181        C182   1.416       .  A
C182        C183   1.397   1_554  A
C182        H191   1.077       .  S
C183        C184   1.402       .  A
C183        H192   1.083       .  S
C184        C185   1.405       .  A
C185       H1019   1.084       .  S
H193       C1011   1.084       .  S
C194        C195   1.403       .  A
C194        C199   1.402       .  A
C195        C196   1.400       .  A
C195        H208   1.083       .  S
C196        C197   1.416       .  A
C196        H209   1.078       .  S
C197        C203   1.434       .  A
C197        C198   1.423       .  A
C198        C200   1.399       .  A
C198        C199   1.407       .  A
C199        H210   1.085       .  S
C200        C201   1.390       .  A
C200        H211   1.084       .  S
C201        C202   1.399       .  A
C201        H212   1.084       .  S
C202        C203   1.422       .  A
C202        C207   1.406       .  A
C203        C204   1.417       .  A
C204        C205   1.402       .  A
C204        H213   1.078       .  S
C205        C206   1.400       .  A
C205        H214   1.083       .  S
C206        C207   1.401       .  A
C207        H215   1.085       .  S
C216        C217   1.401       .  A
C216        C634   1.406       .  A
C217        C218   1.395       .  A
C217        H230   1.083       .  S
C218        C219   1.415       .  A
C218        H231   1.077       .  S
C219        C225   1.432       .  A
C219        C633   1.422       .  A
C220        C222   1.403       .  A
C220        C221   1.413       .  A
C220        C632   1.421       .  A
C221        C629   1.408       .  A
C221        H232   1.084       .  S
C222        C223   1.397       .  A
C222        H233   1.084       .  S
C223        C224   1.402       .  A
C223        H234   1.084       .  S
C224        C229   1.416       .  A
C224        C638   1.423       .  A
C225        C226   1.412       .  A
C225        C637   1.424       .  A
C226        C227   1.392       .  A
C226        H235   1.077       .  S
C227        C228   1.401       .  A
C227        H236   1.084       .  S
C228        C642   1.403       .  A
C229        C641   1.405       .  A
C229        H237   1.084       .  S
C238        C239   1.400       .  A
C238        C243   1.400       .  A
C239        C240   1.404       .  A
C239        H252   1.083       .  S
C240        C241   1.418       .  A
C240        H253   1.078       .  S
C241        C247   1.435       .  A
C241        C242   1.422       .  A
C242        C244   1.399       .  A
C242        C243   1.405       .  A
C243        H254   1.085       .  S
C244        C245   1.390       .  A
C244        H255   1.084       .  S
C245        C246   1.399       .  A
C245        H256   1.084       .  S
C246        C247   1.424       .  A
C246        C251   1.407       .  A
C247        C248   1.415       .  A
C248        C249   1.400       .  A
C248        H257   1.078       .  S
C249        C250   1.403       .  A
C249        H258   1.082       .  S
C250        C251   1.401       .  A
C251        H259   1.085       .  S
C260        C261   1.402       .  A
C260        C265   1.406       .  A
C261        C262   1.390       .  A
C261        H274   1.084       .  S
C262        C263   1.411       .  A
C262        H275   1.077       .  S
C263        C269   1.430       .  A
C263        C264   1.423       .  A
C264        C266   1.402       .  A
C264        C265   1.416       .  A
C265        H276   1.084       .  S
C266        C267   1.397       .  A
C266        H277   1.084       .  S
C267        C268   1.403       .  A
C267        H278   1.084       .  S
C268        C269   1.421       .  A
C268        C273   1.414       .  A
C269        C270   1.413       .  A
C270        C271   1.392       .  A
C270        H279   1.077       .  S
C271        C272   1.402       .  A
C271        H280   1.083       .  S
C272        C273   1.408       .  A
C273        H281   1.084       .  S
C282        C283   1.403       .  A
C282        C287   1.405       .  A
C283        C284   1.398   1_556  A
C283        H296   1.083       .  S
C284        C285   1.415       .  A
C284        H297   1.077       .  S
C285        C291   1.434       .  A
C285        C286   1.422       .  A
C286        C288   1.400       .  A
C286        C287   1.409   1_554  A
C287        H298   1.084       .  S
C288        C289   1.392       .  A
C288        H299   1.084       .  S
C289        C290   1.400       .  A
C289        H300   1.084       .  S
C290        C291   1.422       .  A
C290        C295   1.409       .  A
C291        C292   1.415       .  A
C292        C293   1.398       .  A
C292        H301   1.077       .  S
C293        C294   1.403       .  A
C293        H302   1.083       .  S
C294        C295   1.406       .  A
C295        H303   1.084       .  S
C304        C305   1.402       .  A
C304        C309   1.401       .  A
C305        C306   1.405       .  A
C305        H318   1.083       .  S
C306        C307   1.419       .  A
C306        H319   1.078       .  S
C307        C313   1.435       .  A
C307        C308   1.422       .  A
C308        C310   1.398       .  A
C308        C309   1.401       .  A
C309        H320   1.085       .  S
C310        C311   1.386       .  A
C310        H321   1.084       .  S
C311        C312   1.398       .  A
C311        H322   1.084       .  S
C312        C313   1.423       .  A
C312        C317   1.403       .  A
C313        C314   1.416       .  A
C314        C315   1.403       .  A
C314        H323   1.078       .  S
C315        C316   1.404       .  A
C315        H324   1.083       .  S
C316        C317   1.401       .  A
C317        H325   1.084       .  S
C326        C327   1.398       .  A
C326        C331   1.399       .  A
C327        C328   1.400       .  A
C327        H340   1.083       .  S
C328        C329   1.417       .  A
C328        H341   1.078       .  S
C329        C335   1.433       .  A
C329        C330   1.423       .  A
C330        C332   1.399       .  A
C330        C331   1.406       .  A
C331        H342   1.085       .  S
C332        C333   1.390       .  A
C332        H343   1.084       .  S
C333        C334   1.400       .  A
C333        H344   1.084       .  S
C334        C335   1.423       .  A
C334        C339   1.407       .  A
C335        C336   1.415       .  A
C336        C337   1.399       .  A
C336        H345   1.078       .  S
C337        C338   1.404       .  A
C337        H346   1.083       .  S
C338        C339   1.403       .  A
C339        H347   1.084       .  S
C348        C349   1.402       .  A
C348        C353   1.402       .  A
C349        C350   1.406       .  A
C349        H362   1.083       .  S
C350        C351   1.419       .  A
C350        H363   1.078       .  S
C351        C357   1.436       .  A
C351        C352   1.421       .  A
C352        C354   1.398       .  A
C352        C353   1.399       .  A
C353        H364   1.085       .  S
C354        C355   1.385       .  A
C354        H365   1.084       .  S
C355        C356   1.398       .  A
C355        H366   1.084       .  S
C356        C357   1.423       .  A
C356        C361   1.402       .  A
C357        C358   1.416       .  A
C358        C359   1.404       .  A
C358        H367   1.078       .  S
C359        C360   1.405       .  A
C359        H368   1.083       .  S
C360        C361   1.402       .  A
C361        H369   1.084       .  S
C370        C371   1.396       .  A
C370        C375   1.399       .  A
C371        C372   1.395       .  A
C371        H384   1.084       .  S
C372        C373   1.415       .  A
C372        H385   1.077       .  S
C373        C379   1.429       .  A
C373        C374   1.424       .  A
C374        C376   1.401       .  A
C374        C375   1.407       .  A
C375        H386   1.085       .  S
C376        C377   1.392       .  A
C376        H387   1.084       .  S
C377        C378   1.400       .  A
C377        H388   1.084       .  S
C378        C379   1.422       .  A
C378        C383   1.406       .  A
C379        C380   1.414       .  A
C380        C381   1.395       .  A
C380        H389   1.077       .  S
C381        C382   1.401       .  A
C381        H390   1.083       .  S
C382        C383   1.405       .  A
C383        H391   1.085       .  S
C392        C393   1.401       .  A
C392        C397   1.403       .  A
C393        C394   1.397   1_556  A
C393        H406   1.083       .  S
C394        C395   1.415       .  A
C394        H407   1.077       .  S
C395        C401   1.431       .  A
C395        C396   1.422       .  A
C396        C398   1.399       .  A
C396        C397   1.405   1_554  A
C397        H408   1.084       .  S
C398        C399   1.389       .  A
C398        H409   1.084       .  S
C399        C400   1.400       .  A
C399        H410   1.084       .  S
C400        C401   1.422       .  A
C400        C405   1.404       .  A
C401        C402   1.415       .  A
C402        C403   1.397       .  A
C402        H411   1.077       .  S
C403        C404   1.401       .  A
C403        H412   1.083       .  S
C404        C405   1.404       .  A
C405        H413   1.084       .  S
C414        N415   1.354       .  A
C414        N419   1.359       .  A
C414        C783   1.479       .  S
N415        C416   1.356       .  A
C416        N417   1.359       .  A
C416        C773   1.488       .  S
N417        C418   1.364       .  A
C418        N419   1.365       .  A
C418        C817   1.487       .  S
C420        N421   1.358       .  A
C420        N425   1.360       .  A
C420        C739   1.477       .  S
N421        C422   1.361       .  A
C422        N423   1.362       .  A
C422        C805   1.486       .  S
N423        C424   1.361       .  A
C424        N425   1.362       .  A
C424        C729   1.492       .  S
C426        N427   1.355       .  A
C426        N431   1.360       .  A
C426        C651   1.480       .  S
N427        C428   1.357       .  A
C428        N429   1.360       .  A
C428        C685   1.488       .  S
N429        C430   1.365       .  A
C430        N431   1.366       .  A
C430        C707   1.491       .  S
C432        N433   1.357       .  A
C432        N437   1.359       .  A
C432        C619   1.481       .  S
N433        C434   1.359       .  A
C434        N435   1.361       .  A
C434        C629   1.491       .  S
N435        C436   1.365       .  A
C436        N437   1.364       .  A
C436        C695   1.491       .  S
C438        N439   1.361       .  A
C438        N443   1.360       .  A
C438        C575   1.482       .  S
N439        C440   1.364       .  A
C440        N441   1.363       .  A
C440        C585   1.490       .  S
N441        C442   1.359       .  A
C442        N443   1.359       .  A
C442        C553   1.493       .  S
C444        N445   1.358       .  A
C444        N449   1.356       .  A
C444        C519   1.475       .  S
N445        C446   1.363       .  A
C446        N447   1.365       .  A
C446        C597   1.488       .  S
N447        C448   1.360       .  A
C448        N449   1.357       .  A
C448        C509   1.488       .  S
O450       Mn476   2.106       .  S
C451        C751   1.488       .  S
C451        O484   1.274       .  A
C451        O481   1.273       .  A
O452       Mn459   2.181       .  S
O452       Mn470   2.121       .  S
O452       Mn474   2.184       .  S
O453       Mn487   2.100       .  S
O453        C463   1.273       .  A
O454       Mn470   2.100       .  S
O454        C477   1.272       .  A
O455       Mn474   2.117       .  S
O455        C482   1.253       .  A
O456      Mn1313   1.962       .  S
O456       Mn476   1.964       .  S
O456        C472   1.218       .  S
C457        C673   1.482       .  S
C457        O460   1.255       .  A
C457        O483   1.216       .  S
O458      Mn1304   2.125       .  S
O458       Mn459   2.173       .  S
O458       Mn492   2.110       .  S
O458       Mn474   2.167       .  S
Mn459      O1314   2.131       .  S
Mn459       O464   2.120       .  S
Mn459       O878   2.172   1_565  S
O460      Mn1300   2.128   1_455  S
O461       Mn468   2.092       .  S
O461        C463   1.273       .  A
C462        C641   1.486       .  S
C462        O488   1.255       .  A
C462        O475   1.217       .  S
C463        C795   1.479       .  S
O464        C489   1.255       .  A
O465       Mn872   2.173   1_455  S
O465       Mn468   2.118       .  S
O465       Mn487   2.123       .  S
O465       Mn887   2.175   1_455  S
O466       Mn470   1.957       .  S
O466       Mn492   1.960       .  S
O466        C489   1.218       .  S
C467        C563   1.487       .  S
C467       O1319   1.275       .  A
C467        O469   1.273       .  A
Mn468       O481   2.096       .  S
O469       Mn492   2.089       .  S
Mn470       O486   2.101       .  S
Mn470       O480   1.951       .  S
O471        C473   1.273       .  A
C472        C541   1.488       .  S
C472        O490   1.256       .  A
C473        C607   1.484       .  S
C473        O486   1.273       .  A
Mn474      O1286   2.128       .  S
Mn474       O878   2.170   1_565  S
O475       Mn478   1.963       .  S
Mn476       O494   1.958       .  S
C477        C663   1.483       .  S
Mn478       O485   2.102       .  S
Mn478       O493   2.115       .  S
Mn478      O1284   2.125   1_455  S
Mn478       O483   1.953       .  S
C479        C531   1.480       .  S
C479       O1311   1.273       .  A
C479        O495   1.271       .  A
O480       Mn492   1.959       .  S
O480        C482   1.217       .  S
C482        C761   1.482       .  S
O484       Mn487   2.105       .  S
O485       C1305   1.273   1_455  A
Mn487      O1282   1.962   1_455  S
Mn487      O1320   1.956   1_455  S
O488      Mn1285   2.131   1_455  S
C489        C717   1.486       .  S
O491        C496   1.255       .  A
Mn492       O495   2.081       .  S
O493       C1293   1.275   1_455  A
O494      Mn1313   1.956       .  S
O494        C496   1.217       .  S
C496        C497   1.483       .  S
C497        C498   1.401       .  A
C497       C1328   1.404       .  A
C498        C499   1.390       .  A
C498        H511   1.084       .  S
C499        C500   1.412       .  A
C499        H512   1.076       .  S
C500        C506   1.431       .  A
C500        C501   1.424       .  A
C501       C1329   1.401       .  A
C501       C1328   1.415       .  A
C502       C1323   1.404       .  A
C502       C1327   1.415       .  A
C502        H513   1.084   1_655  S
C503       C1327   1.401   1_455  A
C503        C504   1.396       .  A
C503        H514   1.084       .  S
C504       C1331   1.402       .  A
C504        H515   1.084       .  S
C505       C1330   1.402       .  A
C505        C506   1.422       .  A
C505        C510   1.413       .  A
C506        C507   1.414       .  A
C507        C508   1.392       .  A
C507        H516   1.076       .  S
C508        C509   1.401       .  A
C508        H517   1.083       .  S
C509        C510   1.406       .  A
C510       H1344   1.084       .  S
H518       C1336   1.084       .  S
C519        C520   1.397       .  A
C519       C1350   1.402       .  A
C520        C521   1.392       .  A
C520        H533   1.084       .  S
C521        C522   1.414       .  A
C521        H534   1.077       .  S
C522        C528   1.428       .  A
C522       C1349   1.423       .  A
C523       C1348   1.423   1_455  A
C523        C525   1.402       .  A
C523        C524   1.410       .  A
C524       C1345   1.402   1_455  A
C524        H535   1.084       .  S
C525        C526   1.394       .  A
C525        H536   1.084       .  S
C526        C527   1.401       .  A
C526        H537   1.084       .  S
C527       C1354   1.423   1_455  A
C527        C532   1.410       .  A
C528       C1353   1.423       .  A
C528        C529   1.412       .  A
C529        C530   1.391       .  A
C529        H538   1.077       .  S
C530        C531   1.400       .  A
C530        H539   1.084       .  S
C531       C1358   1.404       .  A
C532       C1357   1.404   1_455  A
C532        H540   1.084       .  S
C541        C542   1.402       .  A
C541       C1372   1.403       .  A
C542        C543   1.407       .  A
C542        H555   1.083       .  S
C543        C544   1.420       .  A
C543        H556   1.078       .  S
C544        C550   1.437       .  A
C544       C1371   1.421       .  A
C545       C1370   1.421       .  A
C545        C547   1.399       .  A
C545        C546   1.401       .  A
C546       C1367   1.403       .  A
C546        H557   1.085       .  S
C547        C548   1.386       .  A
C547        H558   1.084       .  S
C548        C549   1.398       .  A
C548        H559   1.084       .  S
C549       C1376   1.424       .  A
C549        C554   1.405       .  A
C550       C1375   1.424       .  A
C550        C551   1.416       .  A
C551        C552   1.404       .  A
C551        H560   1.078       .  S
C552        C553   1.405       .  A
C552        H561   1.083       .  S
C553       C1380   1.402       .  A
C554       C1379   1.402   1_655  A
C554        H562   1.084       .  S
C563        C564   1.401       .  A
C563       C1394   1.407       .  A
C564        C565   1.393       .  A
C564        H577   1.083       .  S
C565        C566   1.412       .  A
C565        H578   1.077       .  S
C566        C572   1.430       .  A
C566       C1393   1.423       .  A
C567       C1392   1.423   1_455  A
C567        C569   1.402       .  A
C567        C568   1.415       .  A
C568       C1389   1.407   1_455  A
C568        H579   1.084       .  S
C569        C570   1.397       .  A
C569        H580   1.084       .  S
C570        C571   1.403       .  A
C570        H581   1.084       .  S
C571       C1398   1.422   1_455  A
C571        C576   1.414       .  A
C572       C1397   1.422       .  A
C572        C573   1.414       .  A
C573        C574   1.394       .  A
C573        H582   1.077       .  S
C574        C575   1.398       .  A
C574        H583   1.084       .  S
C575       C1402   1.405       .  A
C576       C1401   1.405       .  A
C576        H584   1.084       .  S
C585        C586   1.403       .  A
C585       C1416   1.405       .  A
C586        C587   1.396       .  A
C586        H599   1.083       .  S
C587        C588   1.414       .  A
C587        H600   1.077       .  S
C588        C594   1.432       .  A
C588       C1415   1.422       .  A
C589       C1414   1.422       .  A
C589        C591   1.400       .  A
C589        C590   1.409       .  A
C590       C1411   1.405       .  A
C590        H601   1.084       .  S
C591        C592   1.392       .  A
C591        H602   1.084       .  S
C592       C1419   1.401       .  A
C592        H603   1.084       .  S
C593       C1418   1.401       .  A
C593        C594   1.422       .  A
C593        C598   1.408   1_554  A
C594        C595   1.415       .  A
C595        C596   1.397   1_554  A
C595        H604   1.077       .  S
C596        C597   1.402       .  A
C596        H605   1.083       .  S
C597        C598   1.406       .  A
C598       H1432   1.084       .  S
H606       C1424   1.084       .  S
C607        C608   1.402       .  A
C607        C612   1.402       .  A
C608        C609   1.401       .  A
C608        H621   1.083       .  S
C609        C610   1.416       .  A
C609        H622   1.078       .  S
C610        C616   1.434       .  A
C610        C611   1.423       .  A
C611        C613   1.399   1_565  A
C611        C612   1.406       .  A
C612        H623   1.085   1_565  S
C613        C614   1.389       .  A
C613        H624   1.084       .  S
C614        C615   1.399   1_545  A
C614        H625   1.084       .  S
C615        C616   1.423       .  A
C615        C620   1.405       .  A
C616        C617   1.418       .  A
C617        C618   1.403       .  A
C617        H626   1.078       .  S
C618        C619   1.400       .  A
C618        H627   1.083       .  S
C619        C620   1.400       .  A
C620        H628   1.085       .  S
C629        C630   1.402       .  A
C630        C631   1.393       .  A
C630        H643   1.083       .  S
C631        C632   1.413       .  A
C631        H644   1.077       .  S
C632        C638   1.431       .  A
C633        C635   1.402       .  A
C633        C634   1.412       .  A
C634        H645   1.084       .  S
C635        C636   1.395       .  A
C635        H646   1.084       .  S
C636        C637   1.401       .  A
C636        H647   1.084       .  S
C637        C642   1.414       .  A
C638        C639   1.411       .  A
C639        C640   1.391       .  A
C639        H648   1.077       .  S
C640        C641   1.402       .  A
C640        H649   1.084   1_565  S
C642        H650   1.084       .  S
C651        C652   1.400       .  A
C651        C656   1.401       .  A
C652        C653   1.403       .  A
C652        H665   1.083       .  S
C653        C654   1.418       .  A
C653        H666   1.078       .  S
C654        C660   1.433       .  A
C654        C655   1.422       .  A
C655        C657   1.399   1_565  A
C655        C656   1.404       .  A
C656        H667   1.085   1_565  S
C657        C658   1.389       .  A
C657        H668   1.084       .  S
C658        C659   1.399   1_545  A
C658        H669   1.084       .  S
C659        C660   1.423       .  A
C659        C664   1.406       .  A
C660        C661   1.416       .  A
C661        C662   1.401       .  A
C661        H670   1.078       .  S
C662        C663   1.402       .  A
C662        H671   1.083       .  S
C663        C664   1.401       .  A
C664        H672   1.085   1_565  S
C673        C674   1.402       .  A
C673        C678   1.404       .  A
C674        C675   1.389       .  A
C674        H687   1.084       .  S
C675        C676   1.411       .  A
C675        H688   1.077       .  S
C676        C682   1.428       .  A
C676        C677   1.423       .  A
C677        C679   1.401       .  A
C677        C678   1.414       .  A
C678        H689   1.084       .  S
C679        C680   1.396       .  A
C679        H690   1.084       .  S
C680        C681   1.402       .  A
C680        H691   1.084       .  S
C681        C682   1.421       .  A
C681        C686   1.412       .  A
C682        C683   1.412       .  A
C683        C684   1.391       .  A
C683        H692   1.077       .  S
C684        C685   1.402       .  A
C684        H693   1.083       .  S
C685        C686   1.407       .  A
C686        H694   1.084       .  S
C695        C696   1.403       .  A
C695        C700   1.405       .  A
C696        C697   1.399   1_556  A
C696        H709   1.083       .  S
C697        C698   1.415       .  A
C697        H710   1.077       .  S
C698        C704   1.434       .  A
C698        C699   1.422       .  A
C699        C701   1.400       .  A
C699        C700   1.407   1_554  A
C700        H711   1.084       .  S
C701        C702   1.390       .  A
C701        H712   1.084       .  S
C702        C703   1.400       .  A
C702        H713   1.084       .  S
C703        C704   1.423       .  A
C703        C708   1.408       .  A
C704        C705   1.415       .  A
C705        C706   1.399       .  A
C705        H714   1.077       .  S
C706        C707   1.404       .  A
C706        H715   1.083       .  S
C707        C708   1.404       .  A
C708        H716   1.084       .  S
C717        C718   1.401       .  A
C717        C722   1.403       .  A
C718        C719   1.405       .  A
C718        H731   1.083       .  S
C719        C720   1.419       .  A
C719        H732   1.078       .  S
C720        C726   1.436       .  A
C720        C721   1.421       .  A
C721        C723   1.399       .  A
C721        C722   1.402       .  A
C722        H733   1.085       .  S
C723        C724   1.387       .  A
C723        H734   1.084       .  S
C724        C725   1.398       .  A
C724        H735   1.084       .  S
C725        C726   1.424       .  A
C725        C730   1.405       .  A
C726        C727   1.415       .  A
C727        C728   1.402       .  A
C727        H736   1.078       .  S
C728        C729   1.405       .  A
C728        H737   1.083       .  S
C729        C730   1.402       .  A
C730        H738   1.084       .  S
C739        C740   1.399       .  A
C739        C744   1.399       .  A
C740        C741   1.400       .  A
C740        H753   1.083       .  S
C741        C742   1.416       .  A
C741        H754   1.078       .  S
C742        C748   1.434       .  A
C742        C743   1.424       .  A
C743        C745   1.399       .  A
C743        C744   1.407       .  A
C744        H755   1.085       .  S
C745        C746   1.390       .  A
C745        H756   1.084       .  S
C746        C747   1.400       .  A
C746        H757   1.084       .  S
C747        C748   1.422       .  A
C747        C752   1.406       .  A
C748        C749   1.416       .  A
C749        C750   1.400       .  A
C749        H758   1.078       .  S
C750        C751   1.403       .  A
C750        H759   1.083       .  S
C751        C752   1.404       .  A
C752        H760   1.085       .  S
C761        C762   1.402       .  A
C761        C766   1.400       .  A
C762        C763   1.406       .  A
C762        H775   1.083       .  S
C763        C764   1.419       .  A
C763        H776   1.078       .  S
C764        C770   1.434       .  A
C764        C765   1.421       .  A
C765        C767   1.397       .  A
C765        C766   1.396       .  A
C766        H777   1.085       .  S
C767        C768   1.383       .  A
C767        H778   1.084       .  S
C768        C769   1.397       .  A
C768        H779   1.084       .  S
C769        C770   1.422       .  A
C769        C774   1.398       .  A
C770        C771   1.417       .  A
C771        C772   1.405       .  A
C771        H780   1.078       .  S
C772        C773   1.404       .  A
C772        H781   1.083       .  S
C773        C774   1.401       .  A
C774        H782   1.084       .  S
C783        C784   1.400       .  A
C783        C788   1.402       .  A
C784        C785   1.394       .  A
C784        H797   1.084       .  S
C785        C786   1.413       .  A
C785        H798   1.077       .  S
C786        C792   1.429       .  A
C786        C787   1.423       .  A
C787        C789   1.401       .  A
C787        C788   1.411       .  A
C788        H799   1.084       .  S
C789        C790   1.394       .  A
C789        H800   1.084       .  S
C790        C791   1.401       .  A
C790        H801   1.084       .  S
C791        C792   1.422       .  A
C791        C796   1.409       .  A
C792        C793   1.414       .  A
C793        C794   1.394       .  A
C793        H802   1.077       .  S
C794        C795   1.400       .  A
C794        H803   1.084       .  S
C795        C796   1.403       .  A
C796        H804   1.085       .  S
C805        C806   1.402       .  A
C805        C810   1.404       .  A
C806        C807   1.398   1_556  A
C806        H819   1.083       .  S
C807        C808   1.415       .  A
C807        H820   1.077       .  S
C808        C814   1.432       .  A
C808        C809   1.422       .  A
C809        C811   1.400       .  A
C809        C810   1.406   1_554  A
C810        H821   1.084       .  S
C811        C812   1.390       .  A
C811        H822   1.084       .  S
C812        C813   1.400       .  A
C812        H823   1.084       .  S
C813        C814   1.422       .  A
C813        C818   1.407       .  A
C814        C815   1.414       .  A
C815        C816   1.397       .  A
C815        H824   1.077       .  S
C816        C817   1.402       .  A
C816        H825   1.083       .  S
C817        C818   1.404       .  A
C818        H826   1.084       .  S
C827        N828   1.356       .  A
C827        N832   1.355       .  A
C827       C1196   1.469       .  S
N828        C829   1.360       .  A
C829        N830   1.361       .  A
C829       C1186   1.490       .  S
N830        C831   1.363       .  A
C831        N832   1.360       .  A
C831       C1230   1.484       .  S
C833        N834   1.357       .  A
C833        N838   1.357       .  A
C833       C1152   1.473       .  S
N834        C835   1.361       .  A
C835        N836   1.362       .  A
C835       C1218   1.484       .  S
N836        C837   1.360       .  A
C837        N838   1.360       .  A
C837       C1142   1.489       .  S
C839        N840   1.356       .  A
C839        N844   1.360       .  A
C839       C1064   1.480       .  S
N840        C841   1.358       .  A
C841        N842   1.361       .  A
C841       C1098   1.492       .  S
N842        C843   1.366       .  A
C843        N844   1.366       .  A
C843       C1120   1.493       .  S
C845        N846   1.358       .  A
C845        N850   1.361       .  A
C845       C1032   1.481       .  S
N846        C847   1.359       .  A
C847        N848   1.360       .  A
C847       C1042   1.489       .  S
N848        C849   1.364       .  A
C849        N850   1.364       .  A
C849       C1108   1.492       .  S
C851        N852   1.363       .  A
C851        N856   1.358   1_455  A
C851        C988   1.481   1_455  S
N852        C853   1.366       .  A
C853        N854   1.361       .  A
C853        C998   1.489       .  S
N854        C855   1.355       .  A
C855        N856   1.356   1_455  A
C855        C966   1.484   1_455  S
C857        N858   1.357       .  A
C857        N862   1.353   1_455  A
C857        C932   1.472   1_455  S
N858        C859   1.363       .  A
C859        N860   1.364       .  A
C859       C1010   1.487       .  S
N860        C861   1.360       .  A
C861        N862   1.357   1_455  A
C861        C922   1.486   1_455  S
O863       Mn889   2.095   1_565  S
O863       C1303   1.272       .  A
C864       C1164   1.488       .  S
C864        O897   1.272       .  A
C864        O894   1.274       .  A
O865       Mn872   2.179       .  S
O865       Mn883   2.124       .  S
O865       Mn887   2.182       .  S
O865      Mn1302   2.121       .  S
O866       Mn900   2.091       .  S
O866        C876   1.272       .  A
O867       Mn883   2.093       .  S
O867        C890   1.271       .  A
O868       Mn887   2.123       .  S
O868        C895   1.255       .  A
O869       Mn889   1.960       .  S
O869        C885   1.219       .  S
C870       C1086   1.487       .  S
C870        O873   1.257       .  A
C870        O896   1.217       .  S
O871       Mn872   2.177       .  S
O871       Mn905   2.116       .  S
O871       Mn887   2.177       .  S
Mn872       O877   2.116       .  S
Mn872      O1317   2.128       .  S
O874       Mn881   2.093       .  S
O874        C876   1.273       .  A
C875       C1054   1.483       .  S
C875        O901   1.255       .  A
C875        O888   1.217       .  S
C876       C1208   1.483       .  S
O877        C902   1.254       .  A
O878       Mn881   2.115       .  S
O878       Mn900   2.122       .  S
O879       Mn883   1.956       .  S
O879       Mn905   1.962       .  S
O879        C902   1.219       .  S
C880        C976   1.486       .  S
C880        O882   1.273       .  A
Mn881       O894   2.104       .  S
Mn881      O1309   1.957   1_545  S
Mn881      O1301   1.959   1_545  S
O882       Mn905   2.093       .  S
Mn883       O899   2.096       .  S
Mn883       O893   1.952       .  S
O884      Mn1302   2.103       .  S
O884        C886   1.274       .  A
C885        C954   1.478       .  S
C885        O903   1.252       .  A
C886       C1020   1.485       .  S
C886        O899   1.272       .  A
Mn887      O1316   2.128       .  S
O888      Mn1294   1.956       .  S
O888       Mn891   1.962       .  S
Mn889      O1297   2.097   1_545  S
Mn889      O1278   2.121   1_545  S
Mn889       O907   1.952       .  S
C890       C1076   1.485       .  S
C890       O1276   1.274       .  A
Mn891       O898   2.102       .  S
Mn891       O906   2.108       .  S
Mn891       O896   1.956       .  S
C892        C944   1.483       .  S
C892        O908   1.271       .  A
O893       Mn905   1.959       .  S
O893        C895   1.218       .  S
C895       C1174   1.486       .  S
O896      Mn1294   1.961       .  S
O897       Mn900   2.093       .  S
C902       C1130   1.484       .  S
O903      Mn1300   2.106   1_545  S
O904      Mn1285   2.119   1_545  S
O904        C909   1.255       .  A
Mn905       O908   2.086       .  S
O907        C909   1.217       .  S
C909        C910   1.477       .  S
C910        C911   1.400       .  A
C911        C912   1.387       .  A
C911        H924   1.084       .  S
C912        C913   1.411       .  A
C912        H925   1.076       .  S
C913        C919   1.427       .  A
C913        C914   1.423       .  A
C915        H926   1.084       .  S
C916        C917   1.395       .  A
C916        H927   1.084       .  S
C917        H928   1.084       .  S
C918        C919   1.421   1_455  A
C918        C923   1.411       .  A
C919        C920   1.412       .  A
C920        C921   1.390       .  A
C920        H929   1.076       .  S
C921        C922   1.401       .  A
C921        H930   1.083       .  S
C922        C923   1.406   1_655  A
C932        C933   1.398       .  A
C933        C934   1.395       .  A
C933        H946   1.084       .  S
C934        C935   1.415       .  A
C934        H947   1.077       .  S
C935        C941   1.430       .  A
C936        C938   1.400       .  A
C936        C937   1.407       .  A
C937        H948   1.085       .  S
C938        C939   1.391       .  A
C938        H949   1.084       .  S
C939        C940   1.400       .  A
C939        H950   1.084       .  S
C940        C945   1.407       .  A
C941        C942   1.414       .  A
C942        C943   1.395       .  A
C942        H951   1.077       .  S
C943        C944   1.402       .  A
C943        H952   1.083       .  S
C945        H953   1.085       .  S
C954        C955   1.400       .  A
C955        C956   1.402       .  A
C955        H968   1.083   1_655  S
C956        C957   1.418       .  A
C956        H969   1.078   1_655  S
C957        C963   1.432       .  A
C958        C960   1.398       .  A
C958        C959   1.399       .  A
C959        H970   1.085       .  S
C960        C961   1.386       .  A
C960        H971   1.084       .  S
C961        C962   1.398       .  A
C961        H972   1.084       .  S
C962        C967   1.402       .  A
C963        C964   1.415   1_655  A
C964        C965   1.400       .  A
C964        H973   1.078       .  S
C965        C966   1.403   1_455  A
C965        H974   1.083       .  S
C967        H975   1.084       .  S
C976        C977   1.401       .  A
C977        C978   1.394       .  A
C977        H990   1.083       .  S
C978        C979   1.413       .  A
C978        H991   1.077       .  S
C979        C985   1.431       .  A
C980        C982   1.402       .  A
C980        C981   1.413       .  A
C981        H992   1.084       .  S
C982        C983   1.396       .  A
C982        H993   1.084       .  S
C983        C984   1.402       .  A
C983        H994   1.084       .  S
C984        C989   1.414       .  A
C985        C986   1.414       .  A
C986        C987   1.394       .  A
C986        H995   1.077       .  S
C987        C988   1.399       .  A
C987        H996   1.084       .  S
C989        H997   1.084       .  S
C998        C999   1.404       .  A
C999       C1000   1.394       .  A
C999       H1012   1.083       .  S
C1000      C1001   1.412       .  A
C1000      H1013   1.077       .  S
C1001      C1007   1.431       .  A
C1002      C1004   1.400       .  A
C1002      C1003   1.410       .  A
C1003      H1014   1.084       .  S
C1004      C1005   1.391       .  A
C1004      H1015   1.084       .  S
C1005      H1016   1.084       .  S
C1006      C1007   1.421       .  A
C1006      C1011   1.406   1_554  A
C1007      C1008   1.416       .  A
C1008      C1009   1.397   1_554  A
C1008      H1017   1.077       .  S
C1009      C1010   1.402       .  A
C1009      H1018   1.083       .  S
C1010      C1011   1.405       .  A
C1020      C1021   1.403       .  A
C1020      C1025   1.402       .  A
C1021      C1022   1.400       .  A
C1021      H1034   1.083       .  S
C1022      C1023   1.416       .  A
C1022      H1035   1.078       .  S
C1023      C1029   1.434       .  A
C1023      C1024   1.423       .  A
C1024      C1026   1.399       .  A
C1024      C1025   1.407       .  A
C1025      H1036   1.085       .  S
C1026      C1027   1.390       .  A
C1026      H1037   1.084       .  S
C1027      C1028   1.399       .  A
C1027      H1038   1.084       .  S
C1028      C1029   1.422       .  A
C1028      C1033   1.406       .  A
C1029      C1030   1.417       .  A
C1030      C1031   1.402       .  A
C1030      H1039   1.078       .  S
C1031      C1032   1.400       .  A
C1031      H1040   1.083       .  S
C1032      C1033   1.401       .  A
C1033      H1041   1.085       .  S
C1042      C1043   1.401       .  A
C1042      C1460   1.406       .  A
C1043      C1044   1.395       .  A
C1043      H1056   1.083       .  S
C1044      C1045   1.415       .  A
C1044      H1057   1.077       .  S
C1045      C1051   1.432       .  A
C1045      C1459   1.422       .  A
C1046      C1458   1.421       .  A
C1046      C1048   1.403       .  A
C1046      C1047   1.413       .  A
C1047      C1455   1.408       .  A
C1047      H1058   1.084       .  S
C1048      C1049   1.397       .  A
C1048      H1059   1.084       .  S
C1049      C1050   1.402       .  A
C1049      H1060   1.084       .  S
C1050      C1464   1.423       .  A
C1050      C1055   1.416       .  A
C1051      C1463   1.424       .  A
C1051      C1052   1.412       .  A
C1052      C1053   1.392       .  A
C1052      H1061   1.077       .  S
C1053      C1054   1.401       .  A
C1053      H1062   1.084       .  S
C1054      C1468   1.403       .  A
C1055      C1467   1.405       .  A
C1055      H1063   1.084       .  S
C1064      C1065   1.400       .  A
C1064      C1069   1.400       .  A
C1065      C1066   1.404       .  A
C1065      H1078   1.083       .  S
C1066      C1067   1.418       .  A
C1066      H1079   1.078       .  S
C1067      C1073   1.435       .  A
C1067      C1068   1.422       .  A
C1068      C1070   1.399       .  A
C1068      C1069   1.405       .  A
C1069      H1080   1.085       .  S
C1070      C1071   1.390       .  A
C1070      H1081   1.084       .  S
C1071      C1072   1.399       .  A
C1071      H1082   1.084       .  S
C1072      C1073   1.424       .  A
C1072      C1077   1.407       .  A
C1073      C1074   1.415       .  A
C1074      C1075   1.400       .  A
C1074      H1083   1.078       .  S
C1075      C1076   1.403       .  A
C1075      H1084   1.082       .  S
C1076      C1077   1.401       .  A
C1077      H1085   1.085       .  S
C1086      C1087   1.402       .  A
C1086      C1091   1.406       .  A
C1087      C1088   1.389       .  A
C1087      H1100   1.084       .  S
C1088      C1089   1.411       .  A
C1088      H1101   1.077       .  S
C1089      C1095   1.430       .  A
C1089      C1090   1.423       .  A
C1090      C1092   1.402       .  A
C1090      C1091   1.416       .  A
C1091      H1102   1.084       .  S
C1092      C1093   1.397       .  A
C1092      H1103   1.084       .  S
C1093      C1094   1.403       .  A
C1093      H1104   1.084       .  S
C1094      C1095   1.421       .  A
C1094      C1099   1.414       .  A
C1095      C1096   1.413       .  A
C1096      C1097   1.392       .  A
C1096      H1105   1.077       .  S
C1097      C1098   1.402       .  A
C1097      H1106   1.083       .  S
C1098      C1099   1.408       .  A
C1099      H1107   1.084       .  S
C1108      C1109   1.403       .  A
C1108      C1113   1.405       .  A
C1109      C1110   1.398   1_556  A
C1109      H1122   1.083       .  S
C1110      C1111   1.415       .  A
C1110      H1123   1.077       .  S
C1111      C1117   1.434       .  A
C1111      C1112   1.422       .  A
C1112      C1114   1.400       .  A
C1112      C1113   1.409   1_554  A
C1113      H1124   1.084       .  S
C1114      C1115   1.392       .  A
C1114      H1125   1.084       .  S
C1115      C1116   1.400       .  A
C1115      H1126   1.084       .  S
C1116      C1117   1.422       .  A
C1116      C1121   1.409       .  A
C1117      C1118   1.415       .  A
C1118      C1119   1.398       .  A
C1118      H1127   1.077       .  S
C1119      C1120   1.403       .  A
C1119      H1128   1.083       .  S
C1120      C1121   1.406       .  A
C1121      H1129   1.084       .  S
C1130      C1131   1.402       .  A
C1130      C1135   1.401       .  A
C1131      C1132   1.405       .  A
C1131      H1144   1.083       .  S
C1132      C1133   1.419       .  A
C1132      H1145   1.078       .  S
C1133      C1139   1.435       .  A
C1133      C1134   1.422       .  A
C1134      C1136   1.398       .  A
C1134      C1135   1.401       .  A
C1135      H1146   1.085       .  S
C1136      C1137   1.386       .  A
C1136      H1147   1.084       .  S
C1137      C1138   1.398       .  A
C1137      H1148   1.084       .  S
C1138      C1139   1.423       .  A
C1138      C1143   1.403       .  A
C1139      C1140   1.416       .  A
C1140      C1141   1.403       .  A
C1140      H1149   1.078       .  S
C1141      C1142   1.404       .  A
C1141      H1150   1.083       .  S
C1142      C1143   1.401       .  A
C1143      H1151   1.084       .  S
C1152      C1153   1.398       .  A
C1152      C1157   1.399       .  A
C1153      C1154   1.400       .  A
C1153      H1166   1.083       .  S
C1154      C1155   1.417       .  A
C1154      H1167   1.078       .  S
C1155      C1161   1.433       .  A
C1155      C1156   1.423       .  A
C1156      C1158   1.399       .  A
C1156      C1157   1.406       .  A
C1157      H1168   1.085       .  S
C1158      C1159   1.390       .  A
C1158      H1169   1.084       .  S
C1159      C1160   1.400       .  A
C1159      H1170   1.084       .  S
C1160      C1161   1.423       .  A
C1160      C1165   1.407       .  A
C1161      C1162   1.415       .  A
C1162      C1163   1.399       .  A
C1162      H1171   1.078       .  S
C1163      C1164   1.404       .  A
C1163      H1172   1.083       .  S
C1164      C1165   1.403       .  A
C1165      H1173   1.084       .  S
C1174      C1175   1.402       .  A
C1174      C1179   1.402       .  A
C1175      C1176   1.406       .  A
C1175      H1188   1.083       .  S
C1176      C1177   1.419       .  A
C1176      H1189   1.078       .  S
C1177      C1183   1.436       .  A
C1177      C1178   1.421       .  A
C1178      C1180   1.398       .  A
C1178      C1179   1.399       .  A
C1179      H1190   1.085       .  S
C1180      C1181   1.385       .  A
C1180      H1191   1.084       .  S
C1181      C1182   1.398       .  A
C1181      H1192   1.084       .  S
C1182      C1183   1.423       .  A
C1182      C1187   1.402       .  A
C1183      C1184   1.416       .  A
C1184      C1185   1.404       .  A
C1184      H1193   1.078       .  S
C1185      C1186   1.405       .  A
C1185      H1194   1.083       .  S
C1186      C1187   1.402       .  A
C1187      H1195   1.084       .  S
C1196      C1197   1.396       .  A
C1196      C1201   1.399       .  A
C1197      C1198   1.395       .  A
C1197      H1210   1.084       .  S
C1198      C1199   1.415       .  A
C1198      H1211   1.077       .  S
C1199      C1205   1.429       .  A
C1199      C1200   1.424       .  A
C1200      C1202   1.401       .  A
C1200      C1201   1.407       .  A
C1201      H1212   1.085       .  S
C1202      C1203   1.392       .  A
C1202      H1213   1.084       .  S
C1203      C1204   1.400       .  A
C1203      H1214   1.084       .  S
C1204      C1205   1.422       .  A
C1204      C1209   1.406       .  A
C1205      C1206   1.414       .  A
C1206      C1207   1.395       .  A
C1206      H1215   1.077       .  S
C1207      C1208   1.401       .  A
C1207      H1216   1.083       .  S
C1208      C1209   1.404       .  A
C1209      H1217   1.085       .  S
C1218      C1219   1.401       .  A
C1218      C1223   1.403       .  A
C1219      C1220   1.397   1_556  A
C1219      H1232   1.083       .  S
C1220      C1221   1.415       .  A
C1220      H1233   1.077       .  S
C1221      C1227   1.431       .  A
C1221      C1222   1.422       .  A
C1222      C1224   1.399       .  A
C1222      C1223   1.405   1_554  A
C1223      H1234   1.084       .  S
C1224      C1225   1.389       .  A
C1224      H1235   1.084       .  S
C1225      C1226   1.400       .  A
C1225      H1236   1.084       .  S
C1226      C1227   1.422       .  A
C1226      C1231   1.404       .  A
C1227      C1228   1.415       .  A
C1228      C1229   1.397       .  A
C1228      H1237   1.077       .  S
C1229      C1230   1.401       .  A
C1229      H1238   1.083       .  S
C1230      C1231   1.404       .  A
C1231      H1239   1.084       .  S
C1240      N1241   1.354       .  A
C1240      N1245   1.359       .  A
C1240      C1609   1.479       .  S
N1241      C1242   1.356       .  A
C1242      N1243   1.359       .  A
C1242      C1599   1.488       .  S
N1243      C1244   1.364       .  A
C1244      N1245   1.365       .  A
C1244      C1643   1.487       .  S
C1246      N1247   1.358       .  A
C1246      N1251   1.360       .  A
C1246      C1565   1.477       .  S
N1247      C1248   1.361       .  A
C1248      N1249   1.362       .  A
C1248      C1631   1.486       .  S
N1249      C1250   1.361       .  A
C1250      N1251   1.362       .  A
C1250      C1555   1.492       .  S
C1252      N1253   1.355       .  A
C1252      N1257   1.360       .  A
C1252      C1477   1.480       .  S
N1253      C1254   1.357       .  A
C1254      N1255   1.360       .  A
C1254      C1511   1.488       .  S
N1255      C1256   1.365       .  A
C1256      N1257   1.366       .  A
C1256      C1533   1.491       .  S
C1258      N1259   1.357       .  A
C1258      N1263   1.359       .  A
C1258      C1445   1.481       .  S
N1259      C1260   1.359       .  A
C1260      N1261   1.361       .  A
C1260      C1455   1.491       .  S
N1261      C1262   1.365       .  A
C1262      N1263   1.364       .  A
C1262      C1521   1.491       .  S
C1264      N1265   1.361       .  A
C1264      N1269   1.360       .  A
C1264      C1401   1.482       .  S
N1265      C1266   1.364       .  A
C1266      N1267   1.363       .  A
C1266      C1411   1.490       .  S
N1267      C1268   1.359       .  A
C1268      N1269   1.359       .  A
C1268      C1379   1.493       .  S
C1270      N1271   1.358       .  A
C1270      N1275   1.356   1_455  A
C1270      C1345   1.475   1_455  S
N1271      C1272   1.363       .  A
C1272      N1273   1.365       .  A
C1272      C1423   1.488       .  S
N1273      C1274   1.360       .  A
C1274      N1275   1.357   1_455  A
C1274      C1335   1.488   1_455  S
O1276     Mn1302   2.106       .  S
C1277      C1577   1.488       .  S
C1277      O1310   1.274       .  A
C1277      O1307   1.273       .  A
O1278     Mn1285   2.180       .  S
O1278     Mn1296   2.121       .  S
O1278     Mn1300   2.184       .  S
O1279     Mn1313   2.100       .  S
O1279      C1289   1.273       .  A
O1280     Mn1296   2.100       .  S
O1280      C1303   1.272       .  A
O1281     Mn1300   2.117       .  S
O1281      C1308   1.253       .  A
O1282     Mn1302   1.964       .  S
O1282      C1298   1.218       .  S
C1283      C1499   1.482       .  S
C1283      O1286   1.255       .  A
C1283      O1309   1.216       .  S
O1284     Mn1285   2.173       .  S
O1284     Mn1318   2.110       .  S
O1284     Mn1300   2.167       .  S
Mn1285     O1290   2.120       .  S
O1287     Mn1294   2.092       .  S
O1287      C1289   1.273       .  A
C1288      C1467   1.486       .  S
C1288      O1314   1.255       .  A
C1288      O1301   1.217       .  S
C1289      C1621   1.479       .  S
O1290      C1315   1.255       .  A
O1291     Mn1294   2.118       .  S
O1291     Mn1313   2.123       .  S
O1292     Mn1296   1.957       .  S
O1292     Mn1318   1.960       .  S
O1292      C1315   1.218       .  S
C1293      C1389   1.487       .  S
C1293      O1295   1.273       .  A
Mn1294     O1307   2.096       .  S
O1295     Mn1318   2.089       .  S
Mn1296     O1312   2.101       .  S
Mn1296     O1306   1.951       .  S
O1297      C1299   1.273       .  A
C1298      C1367   1.488       .  S
C1298      O1316   1.256       .  A
C1299      C1433   1.484       .  S
C1299      O1312   1.273       .  A
O1301     Mn1304   1.963       .  S
Mn1302     O1320   1.958       .  S
C1303      C1489   1.483       .  S
Mn1304     O1311   2.102       .  S
Mn1304     O1319   2.115       .  S
Mn1304     O1309   1.953       .  S
C1305      C1357   1.480       .  S
C1305      O1321   1.271       .  A
O1306     Mn1318   1.959       .  S
O1306      C1308   1.217       .  S
C1308      C1587   1.482       .  S
O1310     Mn1313   2.105       .  S
C1315      C1543   1.486       .  S
O1317      C1322   1.255       .  A
Mn1318     O1321   2.081       .  S
O1320      C1322   1.217       .  S
C1322      C1323   1.483       .  S
C1323      C1324   1.401       .  A
C1324      C1325   1.390       .  A
C1324      H1337   1.084       .  S
C1325      C1326   1.412       .  A
C1325      H1338   1.076       .  S
C1326      C1332   1.431       .  A
C1326      C1327   1.424       .  A
C1328      H1339   1.084       .  S
C1329      C1330   1.396       .  A
C1329      H1340   1.084       .  S
C1330      H1341   1.084       .  S
C1331      C1332   1.422   1_455  A
C1331      C1336   1.413       .  A
C1332      C1333   1.414       .  A
C1333      C1334   1.392       .  A
C1333      H1342   1.076       .  S
C1334      C1335   1.401       .  A
C1334      H1343   1.083       .  S
C1335      C1336   1.406   1_655  A
C1345      C1346   1.397       .  A
C1346      C1347   1.392       .  A
C1346      H1359   1.084       .  S
C1347      C1348   1.414       .  A
C1347      H1360   1.077       .  S
C1348      C1354   1.428       .  A
C1349      C1351   1.402       .  A
C1349      C1350   1.410       .  A
C1350      H1361   1.084       .  S
C1351      C1352   1.394       .  A
C1351      H1362   1.084       .  S
C1352      C1353   1.401       .  A
C1352      H1363   1.084       .  S
C1353      C1358   1.410       .  A
C1354      C1355   1.412       .  A
C1355      C1356   1.391       .  A
C1355      H1364   1.077       .  S
C1356      C1357   1.400       .  A
C1356      H1365   1.084       .  S
C1358      H1366   1.084       .  S
C1367      C1368   1.402       .  A
C1368      C1369   1.407       .  A
C1368      H1381   1.083       .  S
C1369      C1370   1.420       .  A
C1369      H1382   1.078   1_655  S
C1370      C1376   1.437       .  A
C1371      C1373   1.399       .  A
C1371      C1372   1.401       .  A
C1372      H1383   1.085       .  S
C1373      C1374   1.386       .  A
C1373      H1384   1.084       .  S
C1374      C1375   1.398       .  A
C1374      H1385   1.084       .  S
C1375      C1380   1.405       .  A
C1376      C1377   1.416   1_655  A
C1377      C1378   1.404       .  A
C1377      H1386   1.078       .  S
C1378      C1379   1.405       .  A
C1378      H1387   1.083       .  S
C1380      H1388   1.084       .  S
C1389      C1390   1.401       .  A
C1390      C1391   1.393       .  A
C1390      H1403   1.083       .  S
C1391      C1392   1.412       .  A
C1391      H1404   1.077       .  S
C1392      C1398   1.430       .  A
C1393      C1395   1.402       .  A
C1393      C1394   1.415       .  A
C1394      H1405   1.084       .  S
C1395      C1396   1.397       .  A
C1395      H1406   1.084       .  S
C1396      C1397   1.403       .  A
C1396      H1407   1.084       .  S
C1397      C1402   1.414       .  A
C1398      C1399   1.414       .  A
C1399      C1400   1.394       .  A
C1399      H1408   1.077       .  S
C1400      C1401   1.398   1_655  A
C1400      H1409   1.084       .  S
C1402      H1410   1.084       .  S
C1411      C1412   1.403       .  A
C1412      C1413   1.396       .  A
C1412      H1425   1.083       .  S
C1413      C1414   1.414       .  A
C1413      H1426   1.077       .  S
C1414      C1420   1.432       .  A
C1415      C1417   1.400       .  A
C1415      C1416   1.409       .  A
C1416      H1427   1.084       .  S
C1417      C1418   1.392       .  A
C1417      H1428   1.084       .  S
C1418      H1429   1.084       .  S
C1419      C1420   1.422       .  A
C1419      C1424   1.408   1_554  A
C1420      C1421   1.415       .  A
C1421      C1422   1.397   1_554  A
C1421      H1430   1.077       .  S
C1422      C1423   1.402       .  A
C1422      H1431   1.083       .  S
C1423      C1424   1.406       .  A
C1433      C1434   1.402       .  A
C1433      C1438   1.402       .  A
C1434      C1435   1.401       .  A
C1434      H1447   1.083       .  S
C1435      C1436   1.416       .  A
C1435      H1448   1.078       .  S
C1436      C1442   1.434       .  A
C1436      C1437   1.423       .  A
C1437      C1439   1.399   1_565  A
C1437      C1438   1.406       .  A
C1438      H1449   1.085   1_565  S
C1439      C1440   1.389       .  A
C1439      H1450   1.084       .  S
C1440      C1441   1.399   1_545  A
C1440      H1451   1.084       .  S
C1441      C1442   1.423       .  A
C1441      C1446   1.405       .  A
C1442      C1443   1.418       .  A
C1443      C1444   1.403       .  A
C1443      H1452   1.078       .  S
C1444      C1445   1.400       .  A
C1444      H1453   1.083       .  S
C1445      C1446   1.400       .  A
C1446      H1454   1.085       .  S
C1455      C1456   1.402       .  A
C1456      C1457   1.393       .  A
C1456      H1469   1.083       .  S
C1457      C1458   1.413       .  A
C1457      H1470   1.077       .  S
C1458      C1464   1.431       .  A
C1459      C1461   1.402       .  A
C1459      C1460   1.412       .  A
C1460      H1471   1.084       .  S
C1461      C1462   1.395       .  A
C1461      H1472   1.084       .  S
C1462      C1463   1.401       .  A
C1462      H1473   1.084       .  S
C1463      C1468   1.414       .  A
C1464      C1465   1.411       .  A
C1465      C1466   1.391       .  A
C1465      H1474   1.077       .  S
C1466      C1467   1.402       .  A
C1466      H1475   1.084   1_565  S
C1468      H1476   1.084       .  S
C1477      C1478   1.400       .  A
C1477      C1482   1.401       .  A
C1478      C1479   1.403       .  A
C1478      H1491   1.083       .  S
C1479      C1480   1.418       .  A
C1479      H1492   1.078       .  S
C1480      C1486   1.433       .  A
C1480      C1481   1.422       .  A
C1481      C1483   1.399   1_565  A
C1481      C1482   1.404       .  A
C1482      H1493   1.085   1_565  S
C1483      C1484   1.389       .  A
C1483      H1494   1.084       .  S
C1484      C1485   1.399   1_545  A
C1484      H1495   1.084       .  S
C1485      C1486   1.423       .  A
C1485      C1490   1.406       .  A
C1486      C1487   1.416       .  A
C1487      C1488   1.401       .  A
C1487      H1496   1.078       .  S
C1488      C1489   1.402       .  A
C1488      H1497   1.083       .  S
C1489      C1490   1.401       .  A
C1490      H1498   1.085   1_565  S
C1499      C1500   1.402       .  A
C1499      C1504   1.404       .  A
C1500      C1501   1.389       .  A
C1500      H1513   1.084       .  S
C1501      C1502   1.411       .  A
C1501      H1514   1.077       .  S
C1502      C1508   1.428       .  A
C1502      C1503   1.423       .  A
C1503      C1505   1.401       .  A
C1503      C1504   1.414       .  A
C1504      H1515   1.084       .  S
C1505      C1506   1.396       .  A
C1505      H1516   1.084       .  S
C1506      C1507   1.402       .  A
C1506      H1517   1.084       .  S
C1507      C1508   1.421       .  A
C1507      C1512   1.412       .  A
C1508      C1509   1.412       .  A
C1509      C1510   1.391       .  A
C1509      H1518   1.077       .  S
C1510      C1511   1.402       .  A
C1510      H1519   1.083       .  S
C1511      C1512   1.407       .  A
C1512      H1520   1.084       .  S
C1521      C1522   1.403       .  A
C1521      C1526   1.405       .  A
C1522      C1523   1.399   1_556  A
C1522      H1535   1.083       .  S
C1523      C1524   1.415       .  A
C1523      H1536   1.077       .  S
C1524      C1530   1.434       .  A
C1524      C1525   1.422       .  A
C1525      C1527   1.400       .  A
C1525      C1526   1.407   1_554  A
C1526      H1537   1.084       .  S
C1527      C1528   1.390       .  A
C1527      H1538   1.084       .  S
C1528      C1529   1.400       .  A
C1528      H1539   1.084       .  S
C1529      C1530   1.423       .  A
C1529      C1534   1.408       .  A
C1530      C1531   1.415       .  A
C1531      C1532   1.399       .  A
C1531      H1540   1.077       .  S
C1532      C1533   1.404       .  A
C1532      H1541   1.083       .  S
C1533      C1534   1.404       .  A
C1534      H1542   1.084       .  S
C1543      C1544   1.401       .  A
C1543      C1548   1.403       .  A
C1544      C1545   1.405       .  A
C1544      H1557   1.083       .  S
C1545      C1546   1.419       .  A
C1545      H1558   1.078       .  S
C1546      C1552   1.436       .  A
C1546      C1547   1.421       .  A
C1547      C1549   1.399       .  A
C1547      C1548   1.402       .  A
C1548      H1559   1.085       .  S
C1549      C1550   1.387       .  A
C1549      H1560   1.084       .  S
C1550      C1551   1.398       .  A
C1550      H1561   1.084       .  S
C1551      C1552   1.424       .  A
C1551      C1556   1.405       .  A
C1552      C1553   1.415       .  A
C1553      C1554   1.402       .  A
C1553      H1562   1.078       .  S
C1554      C1555   1.405       .  A
C1554      H1563   1.083       .  S
C1555      C1556   1.402       .  A
C1556      H1564   1.084       .  S
C1565      C1566   1.399       .  A
C1565      C1570   1.399       .  A
C1566      C1567   1.400       .  A
C1566      H1579   1.083       .  S
C1567      C1568   1.416       .  A
C1567      H1580   1.078       .  S
C1568      C1574   1.434       .  A
C1568      C1569   1.424       .  A
C1569      C1571   1.399       .  A
C1569      C1570   1.407       .  A
C1570      H1581   1.085       .  S
C1571      C1572   1.390       .  A
C1571      H1582   1.084       .  S
C1572      C1573   1.400       .  A
C1572      H1583   1.084       .  S
C1573      C1574   1.422       .  A
C1573      C1578   1.406       .  A
C1574      C1575   1.416       .  A
C1575      C1576   1.400       .  A
C1575      H1584   1.078       .  S
C1576      C1577   1.403       .  A
C1576      H1585   1.083       .  S
C1577      C1578   1.404       .  A
C1578      H1586   1.085       .  S
C1587      C1588   1.402       .  A
C1587      C1592   1.400       .  A
C1588      C1589   1.406       .  A
C1588      H1601   1.083       .  S
C1589      C1590   1.419       .  A
C1589      H1602   1.078       .  S
C1590      C1596   1.434       .  A
C1590      C1591   1.421       .  A
C1591      C1593   1.397       .  A
C1591      C1592   1.396       .  A
C1592      H1603   1.085       .  S
C1593      C1594   1.383       .  A
C1593      H1604   1.084       .  S
C1594      C1595   1.397       .  A
C1594      H1605   1.084       .  S
C1595      C1596   1.422       .  A
C1595      C1600   1.398       .  A
C1596      C1597   1.417       .  A
C1597      C1598   1.405       .  A
C1597      H1606   1.078       .  S
C1598      C1599   1.404       .  A
C1598      H1607   1.083       .  S
C1599      C1600   1.401       .  A
C1600      H1608   1.084       .  S
C1609      C1610   1.400       .  A
C1609      C1614   1.402       .  A
C1610      C1611   1.394       .  A
C1610      H1623   1.084       .  S
C1611      C1612   1.413       .  A
C1611      H1624   1.077       .  S
C1612      C1618   1.429       .  A
C1612      C1613   1.423       .  A
C1613      C1615   1.401       .  A
C1613      C1614   1.411       .  A
C1614      H1625   1.084       .  S
C1615      C1616   1.394       .  A
C1615      H1626   1.084       .  S
C1616      C1617   1.401       .  A
C1616      H1627   1.084       .  S
C1617      C1618   1.422       .  A
C1617      C1622   1.409       .  A
C1618      C1619   1.414       .  A
C1619      C1620   1.394       .  A
C1619      H1628   1.077       .  S
C1620      C1621   1.400       .  A
C1620      H1629   1.084       .  S
C1621      C1622   1.403       .  A
C1622      H1630   1.085       .  S
C1631      C1632   1.402       .  A
C1631      C1636   1.404       .  A
C1632      C1633   1.398   1_556  A
C1632      H1645   1.083       .  S
C1633      C1634   1.415       .  A
C1633      H1646   1.077       .  S
C1634      C1640   1.432       .  A
C1634      C1635   1.422       .  A
C1635      C1637   1.400       .  A
C1635      C1636   1.406   1_554  A
C1636      H1647   1.084       .  S
C1637      C1638   1.390       .  A
C1637      H1648   1.084       .  S
C1638      C1639   1.400       .  A
C1638      H1649   1.084       .  S
C1639      C1640   1.422       .  A
C1639      C1644   1.407       .  A
C1640      C1641   1.414       .  A
C1641      C1642   1.397       .  A
C1641      H1650   1.077       .  S
C1642      C1643   1.402       .  A
C1642      H1651   1.083       .  S
C1643      C1644   1.404       .  A
C1644      H1652   1.084       .  S
