geometry optimzed in LAMMPS
_audit_creation_date              2020-11-30 
_audit_creation_method            'lammps2cif' 
_symmetry_space_group_name_H-M    'P1' 
_symmetry_Int_Tables_number       1 
_symmetry_cell_setting            triclinic 
loop_ 
_symmetry_equiv_pos_as_xyz 
  x,y,z 
_cell_length_a                    36.32080057 
_cell_length_b                    36.497450327239534 
_cell_length_c                    24.65877868412365 
_cell_angle_alpha                 78.88190372179713 
_cell_angle_beta                  78.84747214008756 
_cell_angle_gamma                 87.85704356611015 
loop_ 
_atom_site_label 
_atom_site_type_symbol 
_atom_site_fract_x 
_atom_site_fract_y 
_atom_site_fract_z 
_atom_site_charge 
N1          N  0.14903493  0.51018826  0.23715222    -0.00100
C2          C  0.14746663  0.50627320  0.18433844     0.02500
C3          C  0.18196323  0.99617747  0.15711611    -0.20400
C4          C  0.20579068  0.99381191  0.19491903    -0.20600
C5          C  0.18503403  0.00291000  0.24410354     0.02400
H6          H  0.18895530  0.99050675  0.11482646     0.16200
H7          H  0.23472814  0.98512716  0.18700056     0.16200
N8          N  0.23681117  0.00966484  0.29795329    -0.00100
C9          C  0.23824987  0.01036793  0.35204136     0.02500
C10         C  0.20305155  0.00519402  0.38519379    -0.20400
C11         C  0.17891293  0.00130678  0.34985096    -0.20600
C12         C  0.20021640  0.00453254  0.29586818     0.02400
H13         H  0.19574006  0.00377344  0.43023976     0.16200
H14         H  0.14930498  0.99559268  0.36343084     0.16200
N15         N  0.43863844  0.22297315  0.23706591    -0.00100
C16         C  0.43814079  0.22065370  0.18326398     0.02500
C17         C  0.43359963  0.25542919  0.15198750    -0.20400
C18         C  0.43121814  0.28020899  0.18822798    -0.20600
C19         C  0.43468144  0.25971085  0.24077605     0.02400
H20         H  0.43149409  0.26205873  0.10797369     0.16200
H21         H  0.42621809  0.30969098  0.17660404     0.16200
N22         N  0.43989928  0.31209416  0.29420360    -0.00100
C23         C  0.43767534  0.31433433  0.34873896     0.02500
C24         C  0.43018323  0.27988080  0.38271545    -0.20400
C25         C  0.42769279  0.25538667  0.34748305    -0.20600
C26         C  0.43415414  0.27567750  0.29264064     0.02400
H27         H  0.42614480  0.27333158  0.42819088     0.16200
H28         H  0.42054561  0.22630409  0.36185409     0.16200
C29         C  0.05656804  0.01661779  0.10793340     0.45900
N30         N  0.02214107  0.50164063  0.05440606     0.04800
C31         C  0.40758729  0.11722379  0.40150623    -0.03100
H32         H  0.37861408  0.11749400  0.11739673     0.10300
C33         C  0.34470219  0.48031861  0.15175189    -0.03500
Co34       Co  0.48964102  0.06835254  0.48893255     0.74200
N35         N  0.42118280  0.09208021  0.06239000    -0.22600
Co36       Co  0.39225183  0.06331694  0.01837298     0.74100
C37         C  0.32831729  0.01302414  0.17318269     0.46000
N38         N  0.42939181  0.43828790  0.09799403     0.04400
N39         N  0.36467434  0.03098798  0.09358434     0.04500
N40         N  0.47102144  0.12016462  0.38432500    -0.43500
H41         H  0.04687235  0.07939969  0.07860954     0.10200
N42         N  0.45817368  0.09419883  0.05127526     0.04800
N43         N  0.36466384  0.03292474  0.47448330     0.04500
C44         C  0.33040455  0.01640729  0.42174503     0.46100
N45         N  0.46638588  0.44019135  0.08590295    -0.22100
C46         C  0.04214138  0.05515457  0.37788290    -0.03000
N47         N  0.04401632  0.48748013  0.09043228    -0.43200
N48         N  0.34249316  0.04624973  0.43835236    -0.43400
C49         C  0.05774815  0.02248604  0.35556988     0.45900
N50         N  0.45796264  0.09698043  0.43207022     0.04800
N51         N  0.46541882  0.44268079  0.46709178    -0.22100
N52         N  0.02019398  0.03842665  0.04640365    -0.22600
N53         N  0.42845426  0.44049140  0.47910407     0.04400
H54         H  0.50750445  0.41649480  0.41230275     0.10300
H55         H  0.34077219  0.45409820  0.45286546     0.10300
N56         N  0.42095776  0.09483243  0.44320183    -0.22700
N57         N  0.36698679  0.49419566  0.10246257    -0.22300
N58         N  0.02165491  0.50434947  0.43537486     0.04800
C59         C  0.44114240  0.12702167  0.11509869     0.46200
C60         C  0.48022256  0.41788323  0.12719608    -0.03500
N61         N  0.36688637  0.99612579  0.48352283    -0.22300
H62         H  0.33875978  0.45105716  0.16844683     0.10300
N63         N  0.47125736  0.11538474  0.08130378    -0.43500
H64         H  0.50961188  0.41216252  0.12760051     0.10300
C65         C  0.44472637  0.40690110  0.41618239     0.46000
C66         C  0.04146431  0.05052032  0.07822231    -0.03000
Co67       Co  0.49449325  0.47169648  0.01053422     0.73800
N68         N  0.41677657  0.41523688  0.14606026    -0.43200
C69         C  0.44085403  0.13339825  0.36233451     0.46300
N70         N  0.04433713  0.49206078  0.39379776    -0.43200
Co71       Co  0.39738882  0.46667995  0.04122711     0.73900
C72         C  0.34591947  0.48319141  0.45221599    -0.03500
C73         C  0.40790715  0.11217608  0.10207520    -0.03100
N74         N  0.01994475  0.04115655  0.42724708    -0.22600
N75         N  0.34142687  0.04339307  0.13458033    -0.43400
H76         H  0.37828080  0.12289079  0.40032808     0.10300
C77         C  0.47830302  0.42199130  0.42796510    -0.03500
Cl78       Cl  0.44343006  0.01751620  0.01475681    -0.46500
C79         C  0.44727808  0.40193028  0.16722805     0.46000
H80         H  0.04835021  0.08440452  0.36154105     0.10800
N81         N  0.41495426  0.41892737  0.45007809    -0.43200
C82         C  0.44331331  0.37548372  0.38941060    -0.09900
C83         C  0.44116700  0.34817704  0.36937630    -0.11400
C84         C  0.44446576  0.34304690  0.24948596    -0.09900
C85         C  0.44667458  0.37014429  0.21211857    -0.11400
C86         C  0.44101563  0.19199736  0.28022999    -0.09900
C87         C  0.44171032  0.16500937  0.31710882    -0.11400
C88         C  0.44151844  0.15881861  0.14138287    -0.09900
C89         C  0.44051271  0.18649500  0.16156815    -0.11400
C90         C  0.27191316  0.01465048  0.37315945    -0.09900
C91         C  0.29904983  0.01678851  0.39391002    -0.11400
C92         C  0.26831599  0.01227097  0.25389731    -0.09900
C93         C  0.29582948  0.01326340  0.21712130    -0.11400
C94         C  0.11779556  0.01757278  0.27726921    -0.09900
C95         C  0.09026292  0.02159012  0.31197485    -0.11400
C96         C  0.11425120  0.01100218  0.15978120    -0.09900
C97         C  0.08744788  0.01421099  0.13704073    -0.11400
N98         N  0.14903508  0.51018853  0.73715215    -0.00100
C99         C  0.14746685  0.50627354  0.68433831     0.02500
C100        C  0.18196330  0.99617779  0.65711596    -0.20400
C101        C  0.20579070  0.99381207  0.69491892    -0.20600
C102        C  0.18503410  0.00291007  0.74410351     0.02400
H103        H  0.18895531  0.99050719  0.61482628     0.16200
H104        H  0.23472826  0.98512727  0.68700036     0.16200
N105        N  0.23681124  0.00966492  0.79795335    -0.00100
C106        C  0.23824991  0.01036795  0.85204146     0.02500
C107        C  0.20305155  0.00519407  0.88519382    -0.20400
C108        C  0.17891298  0.00130686  0.84985092    -0.20600
C109        C  0.20021647  0.00453262  0.79586819     0.02400
H110        H  0.19574000  0.00377343  0.93023980     0.16200
H111        H  0.14930501  0.99559274  0.86343073     0.16200
N112        N  0.43863991  0.22297300  0.73706557    -0.00100
C113        C  0.43814259  0.22065359  0.68326352     0.02500
C114        C  0.43360275  0.25542922  0.65198657    -0.20400
C115        C  0.43122166  0.28020901  0.68822695    -0.20600
C116        C  0.43468395  0.25971081  0.74077542     0.02400
H117        H  0.43149788  0.26205890  0.60797255     0.16200
H118        H  0.42622260  0.30969118  0.67660236     0.16200
N119        N  0.43990093  0.31209429  0.79420326    -0.00100
C120        C  0.43767732  0.31433443  0.84873856     0.02500
C121        C  0.43018643  0.27988072  0.88271488    -0.20400
C122        C  0.42769643  0.25538652  0.84748244    -0.20600
C123        C  0.43415674  0.27567748  0.79264009     0.02400
H124        H  0.42614857  0.27333135  0.92819026     0.16200
H125        H  0.42055030  0.22630374  0.86185369     0.16200
C126        C  0.05656813  0.01661805  0.60793345     0.45900
N127        N  0.02214119  0.50164071  0.55440626     0.04800
C128        C  0.40758730  0.11722366  0.90150626    -0.03100
H129        H  0.37861438  0.11749415  0.61739655     0.10300
C130        C  0.34470221  0.48031873  0.65175195    -0.03500
Co131      Co  0.48964102  0.06835273  0.98893280     0.74200
N132        N  0.42118290  0.09208019  0.56238985    -0.22600
Co133      Co  0.39225183  0.06331696  0.51837298     0.74100
C134        C  0.32831723  0.01302421  0.67318268     0.46000
N135        N  0.42939163  0.43828795  0.59799422     0.04400
N136        N  0.36467435  0.03098806  0.59358442     0.04500
N137        N  0.47102146  0.12016445  0.88432495    -0.43500
H138        H  0.04687242  0.07939985  0.57860962     0.10200
N139        N  0.45817377  0.09419870  0.55127501     0.04800
N140        N  0.36466387  0.03292476  0.97448326     0.04500
C141        C  0.33040456  0.01640724  0.92174515     0.46100
N142        N  0.46638566  0.44019137  0.58590308    -0.22100
C143        C  0.04214137  0.05515440  0.87788278    -0.03000
N144        N  0.04401645  0.48748026  0.59043249    -0.43200
N145        N  0.34249312  0.04624972  0.93835244    -0.43400
C146        C  0.05774809  0.02248583  0.85556980     0.45900
N147        N  0.45796266  0.09698050  0.93207039     0.04800
N148        N  0.46541917  0.44268106  0.96709157    -0.22100
N149        N  0.02019394  0.03842685  0.54640392    -0.22600
N150        N  0.42845461  0.44049159  0.97910381     0.04400
H151        H  0.50750486  0.41649541  0.91230210     0.10300
H152        H  0.34077221  0.45409821  0.95286551     0.10300
N153        N  0.42095778  0.09483246  0.94320196    -0.22700
N154        N  0.36698675  0.49419572  0.60246258    -0.22300
N155        N  0.02165487  0.50434931  0.93537479     0.04800
C156        C  0.44114272  0.12702175  0.61509815     0.46200
C157        C  0.48022242  0.41788349  0.62719636    -0.03500
N158        N  0.36688642  0.99612580  0.98352284    -0.22300
H159        H  0.33875971  0.45105729  0.66844687     0.10300
N160        N  0.47125759  0.11538468  0.58130330    -0.43500
H161        H  0.50961173  0.41216280  0.62760080     0.10300
C162        C  0.44472685  0.40690155  0.91618184     0.46000
C163        C  0.04146432  0.05052061  0.57822252    -0.03000
Co164      Co  0.49449308  0.47169629  0.51053425     0.73800
N165        N  0.41677641  0.41523716  0.64606073    -0.43200
C166        C  0.44085404  0.13339797  0.86233441     0.46300
N167        N  0.04433706  0.49206060  0.89379767    -0.43200
Co168      Co  0.39738863  0.46667993  0.54122725     0.73900
C169        C  0.34591949  0.48319133  0.95221603    -0.03500
C170        C  0.40790731  0.11217621  0.60207496    -0.03100
N171        N  0.01994469  0.04115634  0.92724695    -0.22600
N172        N  0.34142692  0.04339316  0.63458046    -0.43400
H173        H  0.37828079  0.12289051  0.90032806     0.10300
C174        C  0.47830343  0.42199177  0.92796465    -0.03500
Cl175      Cl  0.44343004  0.01751616  0.51475670    -0.46500
C176        C  0.44727796  0.40193071  0.66722851     0.46000
H177        H  0.04835021  0.08440427  0.86154092     0.10800
N178        N  0.41495468  0.41892763  0.95007765    -0.43200
C179        C  0.44331408  0.37548408  0.88941014    -0.09900
C180        C  0.44116822  0.34817726  0.86937599    -0.11400
C181        C  0.44446637  0.34304719  0.74948594    -0.09900
C182        C  0.44667460  0.37014465  0.71211882    -0.11400
C183        C  0.44101621  0.19199707  0.78022977    -0.09900
C184        C  0.44171040  0.16500899  0.81710861    -0.11400
C185        C  0.44151905  0.15881849  0.64138266    -0.09900
C186        C  0.44051383  0.18649484  0.66156791    -0.11400
C187        C  0.27191320  0.01465028  0.87315964    -0.09900
C188        C  0.29904989  0.01678832  0.89391015    -0.11400
C189        C  0.26831602  0.01227103  0.75389738    -0.09900
C190        C  0.29582947  0.01326348  0.71712129    -0.11400
C191        C  0.11779557  0.01757263  0.77726932    -0.09900
C192        C  0.09026289  0.02158991  0.81197485    -0.11400
C193        C  0.11425129  0.01100237  0.65978119    -0.09900
C194        C  0.08744801  0.01421127  0.63704067    -0.11400
N195        N  0.14903492  0.01018855  0.23715203    -0.00100
C196        C  0.14746668  0.00627340  0.18433823     0.02500
C197        C  0.18196316  0.49617743  0.15711615    -0.20400
C198        C  0.20579068  0.49381181  0.19491898    -0.20600
C199        C  0.18503407  0.50290986  0.24410358     0.02400
H200        H  0.18895513  0.49050675  0.11482645     0.16200
H201        H  0.23472812  0.48512702  0.18700044     0.16200
N202        N  0.23681115  0.50966502  0.29795326    -0.00100
C203        C  0.23824986  0.51036811  0.35204134     0.02500
C204        C  0.20305153  0.50519399  0.38519381    -0.20400
C205        C  0.17891292  0.50130666  0.34985100    -0.20600
C206        C  0.20021641  0.50453250  0.29586820     0.02400
H207        H  0.19574000  0.50377330  0.43023980     0.16200
H208        H  0.14930501  0.49559241  0.36343089     0.16200
N209        N  0.43863814  0.72297324  0.23706601    -0.00100
C210        C  0.43814034  0.72065374  0.18326416     0.02500
C211        C  0.43359873  0.75542921  0.15198783    -0.20400
C212        C  0.43121710  0.78020899  0.18822835    -0.20600
C213        C  0.43468078  0.75971088  0.24077623     0.02400
H214        H  0.43149290  0.76205879  0.10797412     0.16200
H215        H  0.42621665  0.80969094  0.17660467     0.16200
N216        N  0.43989908  0.81209411  0.29420357    -0.00100
C217        C  0.43767496  0.81433433  0.34873895     0.02500
C218        C  0.43018244  0.77988085  0.38271550    -0.20400
C219        C  0.42769203  0.75538677  0.34748307    -0.20600
C220        C  0.43415360  0.77567753  0.29264071     0.02400
H221        H  0.42614373  0.77333162  0.42819095     0.16200
H222        H  0.42054464  0.72630412  0.36185409     0.16200
C223        C  0.05656798  0.51661775  0.10793364     0.45900
N224        N  0.02214118  0.00164063  0.05440577     0.04800
C225        C  0.40758759  0.61722401  0.40150613    -0.03100
H226        H  0.37861407  0.61749408  0.11739673     0.10300
C227        C  0.34470239  0.98031846  0.15175212    -0.03500
Co228      Co  0.48964111  0.56835259  0.48893280     0.74200
N229        N  0.42118282  0.59208036  0.06238992    -0.22600
Co230      Co  0.39225189  0.56331710  0.01837288     0.74100
C231        C  0.32831713  0.51302432  0.17318247     0.46000
N232        N  0.42939196  0.93828782  0.09799393     0.04400
N233        N  0.36467433  0.53098816  0.09358424     0.04500
N234        N  0.47102175  0.62016468  0.38432500    -0.43500
H235        H  0.04687244  0.57939966  0.07860969     0.10200
N236        N  0.45817369  0.59419894  0.05127527     0.04800
N237        N  0.36466386  0.53292497  0.47448322     0.04500
C238        C  0.33040465  0.51640749  0.42174488     0.46100
N239        N  0.46638601  0.94019129  0.08590280    -0.22100
C240        C  0.04214155  0.55515442  0.37788304    -0.03000
N241        N  0.04401642  0.98748016  0.09043200    -0.43200
N242        N  0.34249314  0.54624995  0.43835233    -0.43400
C243        C  0.05774831  0.52248582  0.35557022     0.45900
N244        N  0.45796288  0.59698058  0.43207027     0.04800
N245        N  0.46541890  0.94268075  0.46709163    -0.22100
N246        N  0.02019394  0.53842665  0.04640393    -0.22600
N247        N  0.42845434  0.94049134  0.47910402     0.04400
H248        H  0.50750441  0.91649486  0.41230231     0.10300
H249        H  0.34077203  0.95409805  0.45286563     0.10300
N250        N  0.42095800  0.59483263  0.44320176    -0.22700
N251        N  0.36698689  0.99419548  0.10246273    -0.22300
N252        N  0.02165486  0.00434958  0.43537461     0.04800
C253        C  0.44114235  0.62702177  0.11509867     0.46200
C254        C  0.48022277  0.91788313  0.12719582    -0.03500
N255        N  0.36688641  0.49612601  0.48352274    -0.22300
H256        H  0.33875992  0.95105699  0.16844710     0.10300
N257        N  0.47125735  0.61538482  0.08130386    -0.43500
H258        H  0.50961210  0.91216242  0.12760020     0.10300
C259        C  0.44472630  0.90690125  0.41618199     0.46000
C260        C  0.04146426  0.55052030  0.07822263    -0.03000
Co261      Co  0.49449330  0.97169647  0.01053409     0.73800
N262        N  0.41677677  0.91523677  0.14606015    -0.43200
C263        C  0.44085436  0.63339842  0.36233450     0.46300
N264        N  0.04433706  0.99206096  0.39379742    -0.43200
Co265      Co  0.39738883  0.96667982  0.04122718     0.73900
C266        C  0.34591931  0.98319115  0.45221620    -0.03500
C267        C  0.40790710  0.61217623  0.10207513    -0.03100
N268        N  0.01994484  0.54115644  0.42724722    -0.22600
N269        N  0.34142683  0.54339325  0.13458021    -0.43400
H270        H  0.37828112  0.62289098  0.40032789     0.10300
C271        C  0.47830300  0.92199135  0.42796478    -0.03500
Cl272      Cl  0.44343006  0.51751631  0.01475682    -0.46500
C273        C  0.44727832  0.90193012  0.16722777     0.46000
H274        H  0.04835048  0.58440430  0.36154114     0.10800
N275        N  0.41495427  0.91892744  0.45007793    -0.43200
C276        C  0.44331320  0.87548378  0.38941034    -0.09900
C277        C  0.44116672  0.84817703  0.36937626    -0.11400
C278        C  0.44446579  0.84304677  0.24948576    -0.09900
C279        C  0.44667480  0.87014406  0.21211819    -0.11400
C280        C  0.44101573  0.69199750  0.28023002    -0.09900
C281        C  0.44171065  0.66500955  0.31710881    -0.11400
C282        C  0.44151831  0.65881864  0.14138302    -0.09900
C283        C  0.44051238  0.68649502  0.16156838    -0.11400
C284        C  0.27191319  0.51465066  0.37315941    -0.09900
C285        C  0.29904990  0.51678865  0.39390993    -0.11400
C286        C  0.26831591  0.51227118  0.25389721    -0.09900
C287        C  0.29582935  0.51326362  0.21712110    -0.11400
C288        C  0.11779561  0.51757242  0.27726949    -0.09900
C289        C  0.09026300  0.52158979  0.31197513    -0.11400
C290        C  0.11425109  0.51100189  0.15978157    -0.09900
C291        C  0.08744786  0.51421086  0.13704092    -0.11400
N292        N  0.14903499  0.01018862  0.73715203    -0.00100
C293        C  0.14746676  0.00627364  0.68433818     0.02500
C294        C  0.18196338  0.49617766  0.65711602    -0.20400
C295        C  0.20579082  0.49381207  0.69491896    -0.20600
C296        C  0.18503421  0.50291000  0.74410358     0.02400
H297        H  0.18895534  0.49050699  0.61482649     0.16200
H298        H  0.23472839  0.48512736  0.68700035     0.16200
N299        N  0.23681128  0.50966508  0.79795330    -0.00100
C300        C  0.23824995  0.51036810  0.85204141     0.02500
C301        C  0.20305165  0.50519403  0.88519385    -0.20400
C302        C  0.17891305  0.50130676  0.84985101    -0.20600
C303        C  0.20021654  0.50453260  0.79586824     0.02400
H304        H  0.19574014  0.50377329  0.93023983     0.16200
H305        H  0.14930516  0.49559253  0.86343087     0.16200
N306        N  0.43863960  0.72297311  0.73706563    -0.00100
C307        C  0.43814215  0.72065369  0.68326363     0.02500
C308        C  0.43360182  0.75542928  0.65198689    -0.20400
C309        C  0.43122062  0.78020910  0.68822728    -0.20600
C310        C  0.43468328  0.75971086  0.74077560     0.02400
H311        H  0.43149661  0.76205893  0.60797297     0.16200
H312        H  0.42622121  0.80969115  0.67660300     0.16200
N313        N  0.43990058  0.81209424  0.79420336    -0.00100
C314        C  0.43767697  0.81433436  0.84873865     0.02500
C315        C  0.43018573  0.77988065  0.88271508    -0.20400
C316        C  0.42769553  0.75538650  0.84748258    -0.20600
C317        C  0.43415609  0.77567749  0.79264024     0.02400
H318        H  0.42614774  0.77333130  0.92819027     0.16200
H319        H  0.42054905  0.72630384  0.86185371     0.16200
C320        C  0.05656813  0.51661792  0.60793375     0.45900
N321        N  0.02214121  0.00164086  0.55440595     0.04800
C322        C  0.40758756  0.61722377  0.90150607    -0.03100
H323        H  0.37861434  0.61749431  0.61739650     0.10300
C324        C  0.34470217  0.98031851  0.65175199    -0.03500
Co325      Co  0.48964107  0.56835274  0.98893291     0.74200
N326        N  0.42118298  0.59208041  0.56238977    -0.22600
Co327      Co  0.39225194  0.56331716  0.51837281     0.74100
C328        C  0.32831727  0.51302448  0.67318253     0.46000
N329        N  0.42939186  0.93828794  0.59799405     0.04400
N330        N  0.36467438  0.53098823  0.59358420     0.04500
N331        N  0.47102170  0.62016467  0.88432514    -0.43500
H332        H  0.04687233  0.57939974  0.57860982     0.10200
N333        N  0.45817387  0.59419887  0.55127513     0.04800
N334        N  0.36466398  0.53292492  0.97448309     0.04500
C335        C  0.33040474  0.51640743  0.92174485     0.46100
N336        N  0.46638590  0.94019129  0.58590278    -0.22100
C337        C  0.04214141  0.55515427  0.87788284    -0.03000
N338        N  0.04401655  0.98748040  0.59043209    -0.43200
N339        N  0.34249324  0.54624990  0.93835222    -0.43400
C340        C  0.05774816  0.52248562  0.85557003     0.45900
N341        N  0.45796284  0.59698060  0.93207042     0.04800
N342        N  0.46541914  0.94268100  0.96709155    -0.22100
N343        N  0.02019395  0.53842671  0.54640412    -0.22600
N344        N  0.42845458  0.94049151  0.97910380     0.04400
H345        H  0.50750482  0.91649537  0.91230208     0.10300
H346        H  0.34077220  0.95409801  0.95286562     0.10300
N347        N  0.42095796  0.59483255  0.94320185    -0.22700
N348        N  0.36698675  0.99419558  0.60246269    -0.22300
N349        N  0.02165477  0.00434937  0.93537450     0.04800
C350        C  0.44114271  0.62702172  0.61509852     0.46200
C351        C  0.48022267  0.91788327  0.62719593    -0.03500
N352        N  0.36688654  0.49612598  0.98352261    -0.22300
H353        H  0.33875976  0.95105707  0.66844690     0.10300
N354        N  0.47125764  0.61538472  0.58130365    -0.43500
H355        H  0.50961198  0.91216252  0.62760027     0.10300
C356        C  0.44472681  0.90690163  0.91618154     0.46000
C357        C  0.04146425  0.55052046  0.57822282    -0.03000
Co358      Co  0.49449320  0.97169628  0.51053396     0.73800
N359        N  0.41677666  0.91523710  0.64606050    -0.43200
C360        C  0.44085434  0.63339818  0.86233443     0.46300
N361        N  0.04433700  0.99206075  0.89379732    -0.43200
Co362      Co  0.39738874  0.96667984  0.54122725     0.73900
C363        C  0.34591939  0.98319114  0.95221623    -0.03500
C364        C  0.40790740  0.61217633  0.60207495    -0.03100
N365        N  0.01994483  0.54115627  0.92724714    -0.22600
N366        N  0.34142701  0.54339337  0.63458019    -0.43400
H367        H  0.37828110  0.62289067  0.90032777     0.10300
C368        C  0.47830338  0.92199175  0.92796458    -0.03500
Cl369      Cl  0.44343001  0.51751622  0.51475672    -0.46500
C370        C  0.44727821  0.90193056  0.66722820     0.46000
H371        H  0.04835022  0.58440407  0.86154096     0.10800
N372        N  0.41495466  0.91892759  0.95007756    -0.43200
C373        C  0.44331404  0.87548404  0.88941007    -0.09900
C374        C  0.44116810  0.84817716  0.86937605    -0.11400
C375        C  0.44446630  0.84304713  0.74948592    -0.09900
C376        C  0.44667476  0.87014458  0.71211872    -0.11400
C377        C  0.44101632  0.69199725  0.78022975    -0.09900
C378        C  0.44171071  0.66500920  0.81710859    -0.11400
C379        C  0.44151891  0.65881856  0.64138280    -0.09900
C380        C  0.44051352  0.68649497  0.66156795    -0.11400
C381        C  0.27191328  0.51465049  0.87315952    -0.09900
C382        C  0.29905003  0.51678854  0.89390990    -0.11400
C383        C  0.26831607  0.51227130  0.75389733    -0.09900
C384        C  0.29582957  0.51326385  0.71712124    -0.11400
C385        C  0.11779569  0.51757248  0.77726951    -0.09900
C386        C  0.09026301  0.52158965  0.81197515    -0.11400
C387        C  0.11425134  0.51100225  0.65978143    -0.09900
C388        C  0.08744803  0.51421114  0.63704097    -0.11400
N389        N  0.64903506  0.51018847  0.23715224    -0.00100
C390        C  0.64746681  0.50627350  0.18433840     0.02500
C391        C  0.68196333  0.99617769  0.15711603    -0.20400
C392        C  0.70579071  0.99381197  0.19491901    -0.20600
C393        C  0.68503412  0.00290999  0.24410357     0.02400
H394        H  0.68895533  0.99050705  0.11482633     0.16200
H395        H  0.73472827  0.98512715  0.18700048     0.16200
N396        N  0.73681121  0.00966484  0.29795338    -0.00100
C397        C  0.73824988  0.01036789  0.35204146     0.02500
C398        C  0.70305153  0.00519399  0.38519395    -0.20400
C399        C  0.67891294  0.00130677  0.34985102    -0.20600
C400        C  0.70021643  0.00453253  0.29586826     0.02400
H401        H  0.69574005  0.00377337  0.43023977     0.16200
H402        H  0.64930499  0.99559266  0.36343092     0.16200
N403        N  0.93863962  0.22297306  0.23706560    -0.00100
C404        C  0.93814224  0.22065366  0.18326357     0.02500
C405        C  0.93360217  0.25542929  0.15198670    -0.20400
C406        C  0.93122098  0.28020912  0.18822711    -0.20600
C407        C  0.93468341  0.25971084  0.24077557     0.02400
H408        H  0.93149718  0.26205894  0.10797275     0.16200
H409        H  0.92622180  0.30969119  0.17660263     0.16200
N410        N  0.93990056  0.31209424  0.29420346    -0.00100
C411        C  0.93767700  0.31433436  0.34873876     0.02500
C412        C  0.93018609  0.27988062  0.38271506    -0.20400
C413        C  0.92769603  0.25538645  0.34748259    -0.20600
C414        C  0.93415624  0.27567746  0.29264027     0.02400
H415        H  0.92614817  0.27333125  0.42819044     0.16200
H416        H  0.92054983  0.22630365  0.36185379     0.16200
C417        C  0.55656819  0.01661798  0.10793346     0.45900
N418        N  0.52214118  0.50164079  0.05440623     0.04800
C419        C  0.90758726  0.11722359  0.40150627    -0.03100
H420        H  0.87861426  0.11749404  0.11739662     0.10300
C421        C  0.84470217  0.48031878  0.15175181    -0.03500
Co422      Co  0.98964094  0.06835271  0.48893286     0.74200
N423        N  0.92118283  0.09208010  0.06238998    -0.22600
Co424      Co  0.89225181  0.06331693  0.01837297     0.74100
C425        C  0.82831746  0.01302413  0.17318292     0.46000
N426        N  0.92939160  0.43828796  0.09799413     0.04400
N427        N  0.86467434  0.03098797  0.09358437     0.04500
N428        N  0.97102143  0.12016443  0.38432510    -0.43500
H429        H  0.54687230  0.07939978  0.07860977     0.10200
N430        N  0.95817370  0.09419861  0.05127522     0.04800
N431        N  0.86466382  0.03292468  0.47448338     0.04500
C432        C  0.83040458  0.01640718  0.42174511     0.46100
N433        N  0.96638566  0.44019131  0.08590300    -0.22100
C434        C  0.54214138  0.05515431  0.37788271    -0.03000
N435        N  0.54401637  0.48748035  0.09043256    -0.43200
N436        N  0.84249307  0.04624963  0.43835255    -0.43400
C437        C  0.55774816  0.02248574  0.35556984     0.45900
N438        N  0.95796259  0.09698045  0.43207049     0.04800
N439        N  0.96541909  0.44268093  0.46709181    -0.22100
N440        N  0.52019404  0.03842680  0.04640383    -0.22600
N441        N  0.92845454  0.44049154  0.47910394     0.04400
H442        H  0.00750482  0.41649534  0.41230235     0.10300
H443        H  0.84077222  0.45409820  0.45286542     0.10300
N444        N  0.92095772  0.09483242  0.44320205    -0.22700
N445        N  0.86698671  0.49419575  0.10246249    -0.22300
N446        N  0.52165484  0.50434928  0.43537475     0.04800
C447        C  0.94114262  0.12702172  0.11509830     0.46200
C448        C  0.98022234  0.41788342  0.12719637    -0.03500
N449        N  0.86688642  0.99612571  0.48352288    -0.22300
H450        H  0.83875973  0.45105725  0.16844686     0.10300
N451        N  0.97125750  0.11538460  0.08130352    -0.43500
H452        H  0.00961164  0.41216274  0.12760093     0.10300
C453        C  0.94472681  0.40690155  0.41618184     0.46000
C454        C  0.54146432  0.05052055  0.07822258    -0.03000
Co455      Co  0.99449309  0.47169628  0.01053420     0.73800
N456        N  0.91677634  0.41523723  0.14606066    -0.43200
C457        C  0.94085403  0.13339804  0.36233456     0.46300
N458        N  0.54433702  0.49206061  0.39379759    -0.43200
Co459      Co  0.89738862  0.46667997  0.04122715     0.73900
C460        C  0.84591948  0.48319141  0.45221602    -0.03500
C461        C  0.90790722  0.11217611  0.10207509    -0.03100
N462        N  0.51994469  0.04115631  0.42724686    -0.22600
N463        N  0.84142708  0.04339307  0.13458060    -0.43400
H464        H  0.87828077  0.12289040  0.40032798     0.10300
C465        C  0.97830338  0.42199169  0.42796483    -0.03500
Cl466      Cl  0.94343004  0.01751613  0.01475657    -0.46500
C467        C  0.94727785  0.40193064  0.16722846     0.46000
H468        H  0.54835026  0.08440419  0.36154088     0.10800
N469        N  0.91495463  0.41892766  0.45007760    -0.43200
C470        C  0.94331400  0.37548401  0.38941028    -0.09900
C471        C  0.94116796  0.34817718  0.36937621    -0.11400
C472        C  0.94446609  0.34304715  0.24948609    -0.09900
C473        C  0.94667442  0.37014461  0.21211891    -0.11400
C474        C  0.94101615  0.19199710  0.28022971    -0.09900
C475        C  0.94171041  0.16500903  0.31710857    -0.11400
C476        C  0.94151891  0.15881856  0.14138264    -0.09900
C477        C  0.94051357  0.18649492  0.16156792    -0.11400
C478        C  0.77191322  0.01465024  0.37315952    -0.09900
C479        C  0.79904994  0.01678827  0.39390997    -0.11400
C480        C  0.76831605  0.01227093  0.25389745    -0.09900
C481        C  0.79582961  0.01326339  0.21712149    -0.11400
C482        C  0.61779563  0.01757258  0.27726931    -0.09900
C483        C  0.59026295  0.02158982  0.31197490    -0.11400
C484        C  0.61425135  0.01100230  0.15978122    -0.09900
C485        C  0.58744807  0.01421120  0.13704069    -0.11400
N486        N  0.64903492  0.51018836  0.73715224    -0.00100
C487        C  0.64746663  0.50627328  0.68433844     0.02500
C488        C  0.68196325  0.99617748  0.65711600    -0.20400
C489        C  0.70579070  0.99381183  0.69491897    -0.20600
C490        C  0.68503406  0.00290992  0.74410352     0.02400
H491        H  0.68895526  0.99050677  0.61482645     0.16200
H492        H  0.73472811  0.98512698  0.68700056     0.16200
N493        N  0.73681122  0.00966467  0.79795336    -0.00100
C494        C  0.73824987  0.01036789  0.85204142     0.02500
C495        C  0.70305152  0.00519408  0.88519379    -0.20400
C496        C  0.67891294  0.00130682  0.84985093    -0.20600
C497        C  0.70021645  0.00453243  0.79586820     0.02400
H498        H  0.69573999  0.00377352  0.93023975     0.16200
H499        H  0.64930497  0.99559279  0.86343074     0.16200
N500        N  0.93863824  0.22297312  0.73706611    -0.00100
C501        C  0.93814049  0.22065364  0.68326422     0.02500
C502        C  0.93359935  0.25542914  0.65198771    -0.20400
C503        C  0.93121789  0.28020896  0.68822816    -0.20600
C504        C  0.93468130  0.25971084  0.74077618     0.02400
H505        H  0.93149385  0.26205869  0.60797391     0.16200
H506        H  0.92621780  0.30969097  0.67660423     0.16200
N507        N  0.93989919  0.31209416  0.79420370    -0.00100
C508        C  0.93767537  0.31433433  0.84873900     0.02500
C509        C  0.93018324  0.27988079  0.88271555    -0.20400
C510        C  0.92769276  0.25538674  0.84748305    -0.20600
C511        C  0.93415401  0.27567752  0.79264073     0.02400
H512        H  0.92614484  0.27333155  0.92819078     0.16200
H513        H  0.92054561  0.22630406  0.86185413     0.16200
C514        C  0.55656815  0.01661782  0.60793318     0.45900
N515        N  0.52214109  0.50164058  0.55440612     0.04800
C516        C  0.90758725  0.11722381  0.90150644    -0.03100
H517        H  0.87861400  0.11749386  0.61739691     0.10300
C518        C  0.84470222  0.48031869  0.65175195    -0.03500
Co519      Co  0.98964099  0.06835255  0.98893270     0.74200
N520        N  0.92118269  0.09208020  0.56239009    -0.22600
Co521      Co  0.89225178  0.06331691  0.51837310     0.74100
C522        C  0.82831725  0.01302404  0.67318266     0.46000
N523        N  0.92939177  0.43828793  0.59799419     0.04400
N524        N  0.86467439  0.03098793  0.59358444     0.04500
N525        N  0.97102141  0.12016469  0.88432521    -0.43500
H526        H  0.54687240  0.07939963  0.57860931     0.10200
N527        N  0.95817356  0.09419887  0.55127527     0.04800
N528        N  0.86466380  0.03292477  0.97448326     0.04500
C529        C  0.83040447  0.01640722  0.92174519     0.46100
N530        N  0.96638583  0.44019135  0.58590313    -0.22100
C531        C  0.54214144  0.05515467  0.87788282    -0.03000
N532        N  0.54401634  0.48748010  0.59043236    -0.43200
N533        N  0.84249298  0.04624971  0.93835252    -0.43400
C534        C  0.55774819  0.02248607  0.85556994     0.45900
N535        N  0.95796263  0.09698050  0.93207042     0.04800
N536        N  0.96541886  0.44268071  0.96709178    -0.22100
N537        N  0.52019405  0.03842662  0.54640350    -0.22600
N538        N  0.92845431  0.44049140  0.97910400     0.04400
H539        H  0.00750438  0.41649479  0.91230255     0.10300
H540        H  0.84077210  0.45409823  0.95286554     0.10300
N541        N  0.92095775  0.09483246  0.94320199    -0.22700
N542        N  0.86698676  0.49419573  0.60246256    -0.22300
N543        N  0.52165489  0.50434954  0.93537483     0.04800
C544        C  0.94114229  0.12702179  0.61509856     0.46200
C545        C  0.98022254  0.41788325  0.62719628    -0.03500
N546        N  0.86688640  0.99612582  0.98352276    -0.22300
H547        H  0.83875976  0.45105730  0.66844688     0.10300
N548        N  0.97125725  0.11538489  0.58130365    -0.43500
H549        H  0.00961185  0.41216253  0.62760075     0.10300
C550        C  0.94472635  0.40690115  0.91618228     0.46000
C551        C  0.54146441  0.05052038  0.57822211    -0.03000
Co552      Co  0.99449323  0.47169639  0.51053435     0.73800
N553        N  0.91677654  0.41523688  0.64606041    -0.43200
C554        C  0.94085397  0.13339827  0.86233473     0.46300
N555        N  0.54433711  0.49206085  0.89379773    -0.43200
Co556      Co  0.89738873  0.46667996  0.54122721     0.73900
C557        C  0.84591934  0.48319147  0.95221606    -0.03500
C558        C  0.90790698  0.11217608  0.60207531    -0.03100
N559        N  0.51994482  0.04115662  0.92724709    -0.22600
N560        N  0.84142693  0.04339299  0.63458044    -0.43400
H561        H  0.87828075  0.12289071  0.90032829     0.10300
C562        C  0.97830307  0.42199121  0.92796504    -0.03500
Cl563      Cl  0.94343003  0.01751619  0.51475677    -0.46500
C564        C  0.94727805  0.40193023  0.66722812     0.46000
H565        H  0.54835027  0.08440448  0.86154091     0.10800
N566        N  0.91495426  0.41892738  0.95007803    -0.43200
C567        C  0.94331329  0.37548377  0.88941050    -0.09900
C568        C  0.94116700  0.34817704  0.86937636    -0.11400
C569        C  0.94446561  0.34304688  0.74948603    -0.09900
C570        C  0.94667451  0.37014422  0.71211860    -0.11400
C571        C  0.94101550  0.19199733  0.78023018    -0.09900
C572        C  0.94171019  0.16500931  0.81710894    -0.11400
C573        C  0.94151833  0.15881864  0.64138290    -0.09900
C574        C  0.94051249  0.18649497  0.66156833    -0.11400
C575        C  0.77191313  0.01465028  0.87315962    -0.09900
C576        C  0.79904978  0.01678829  0.89391022    -0.11400
C577        C  0.76831602  0.01227081  0.75389737    -0.09900
C578        C  0.79582949  0.01326332  0.71712128    -0.11400
C579        C  0.61779556  0.01757279  0.77726923    -0.09900
C580        C  0.59026293  0.02159016  0.81197483    -0.11400
C581        C  0.61425124  0.01100210  0.65978117    -0.09900
C582        C  0.58744797  0.01421099  0.63704058    -0.11400
N583        N  0.64903501  0.01018856  0.23715208    -0.00100
C584        C  0.64746682  0.00627358  0.18433821     0.02500
C585        C  0.68196335  0.49617773  0.15711610    -0.20400
C586        C  0.70579078  0.49381202  0.19491902    -0.20600
C587        C  0.68503418  0.50290994  0.24410367     0.02400
H588        H  0.68895535  0.49050709  0.11482637     0.16200
H589        H  0.73472833  0.48512721  0.18700043     0.16200
N590        N  0.73681129  0.50966499  0.29795331    -0.00100
C591        C  0.73825000  0.51036813  0.35204135     0.02500
C592        C  0.70305169  0.50519412  0.38519395    -0.20400
C593        C  0.67891311  0.50130674  0.34985110    -0.20600
C594        C  0.70021653  0.50453250  0.29586832     0.02400
H595        H  0.69574026  0.50377355  0.43023972     0.16200
H596        H  0.64930511  0.49559252  0.36343106     0.16200
N597        N  0.93863973  0.72297308  0.23706550    -0.00100
C598        C  0.93814220  0.72065368  0.18326353     0.02500
C599        C  0.93360188  0.75542925  0.15198675    -0.20400
C600        C  0.93122079  0.78020908  0.18822712    -0.20600
C601        C  0.93468339  0.75971085  0.24077550     0.02400
H602        H  0.93149673  0.76205884  0.10797287     0.16200
H603        H  0.92622151  0.80969113  0.17660270     0.16200
N604        N  0.93990052  0.81209427  0.29420333    -0.00100
C605        C  0.93767692  0.81433440  0.34873863     0.02500
C606        C  0.93018575  0.77988070  0.38271499    -0.20400
C607        C  0.92769569  0.75538651  0.34748252    -0.20600
C608        C  0.93415613  0.77567749  0.29264019     0.02400
H609        H  0.92614769  0.77333135  0.42819035     0.16200
H610        H  0.92054932  0.72630379  0.36185364     0.16200
C611        C  0.55656805  0.51661799  0.10793386     0.45900
N612        N  0.52214130  0.00164081  0.05440590     0.04800
C613        C  0.90758761  0.61722383  0.40150601    -0.03100
H614        H  0.87861439  0.61749433  0.11739653     0.10300
C615        C  0.84470236  0.98031842  0.15175214    -0.03500
Co616      Co  0.98964109  0.56835268  0.48893289     0.74200
N617        N  0.92118296  0.59208029  0.06238994    -0.22600
Co618      Co  0.89225192  0.56331714  0.01837287     0.74100
C619        C  0.82831724  0.51302448  0.17318244     0.46000
N620        N  0.92939183  0.93828784  0.09799399     0.04400
N621        N  0.86467438  0.53098826  0.09358418     0.04500
N622        N  0.97102177  0.62016459  0.38432503    -0.43500
H623        H  0.54687241  0.57939992  0.07860969     0.10200
N624        N  0.95817384  0.59419881  0.05127516     0.04800
N625        N  0.86466403  0.53292497  0.47448303     0.04500
C626        C  0.83040470  0.51640751  0.42174490     0.46100
N627        N  0.96638586  0.94019126  0.08590285    -0.22100
C628        C  0.54214139  0.55515422  0.37788288    -0.03000
N629        N  0.54401658  0.98748034  0.09043213    -0.43200
N630        N  0.84249332  0.54624997  0.43835217    -0.43400
C631        C  0.55774817  0.52248567  0.35556999     0.45900
N632        N  0.95796288  0.59698057  0.43207035     0.04800
N633        N  0.96541915  0.94268092  0.46709159    -0.22100
N634        N  0.52019396  0.53842682  0.04640407    -0.22600
N635        N  0.92845463  0.94049139  0.47910387     0.04400
H636        H  0.00750479  0.91649546  0.41230204     0.10300
H637        H  0.84077216  0.95409797  0.45286555     0.10300
N638        N  0.92095800  0.59483260  0.44320178    -0.22700
N639        N  0.86698678  0.99419549  0.10246265    -0.22300
N640        N  0.52165479  0.00434934  0.43537447     0.04800
C641        C  0.94114272  0.62702184  0.11509829     0.46200
C642        C  0.98022262  0.91788336  0.12719613    -0.03500
N643        N  0.86688648  0.49612599  0.48352269    -0.22300
H644        H  0.83875994  0.95105702  0.16844709     0.10300
N645        N  0.97125762  0.61538478  0.08130349    -0.43500
H646        H  0.00961194  0.91216268  0.12760058     0.10300
C647        C  0.94472683  0.90690158  0.41618161     0.46000
C648        C  0.54146426  0.55052050  0.07822276    -0.03000
Co649      Co  0.99449318  0.97169626  0.01053398     0.73800
N650        N  0.91677661  0.91523704  0.14606050    -0.43200
C651        C  0.94085441  0.63339819  0.36233437     0.46300
N652        N  0.54433704  0.99206067  0.39379738    -0.43200
Co653      Co  0.89738874  0.96667980  0.04122714     0.73900
C654        C  0.84591937  0.98319107  0.45221624    -0.03500
C655        C  0.90790733  0.61217629  0.10207507    -0.03100
N656        N  0.51994480  0.54115627  0.42724712    -0.22600
N657        N  0.84142703  0.54339341  0.13458020    -0.43400
H658        H  0.87828112  0.62289073  0.40032770     0.10300
C659        C  0.97830347  0.92199171  0.42796454    -0.03500
Cl660      Cl  0.94343001  0.51751627  0.01475657    -0.46500
C661        C  0.94727816  0.90193056  0.16722829     0.46000
H662        H  0.54835022  0.58440418  0.36154091     0.10800
N663        N  0.91495468  0.91892755  0.45007753    -0.43200
C664        C  0.94331404  0.87548402  0.38941013    -0.09900
C665        C  0.94116806  0.84817722  0.36937599    -0.11400
C666        C  0.94446626  0.84304710  0.24948594    -0.09900
C667        C  0.94667474  0.87014452  0.21211867    -0.11400
C668        C  0.94101643  0.69199718  0.28022960    -0.09900
C669        C  0.94171084  0.66500914  0.31710843    -0.11400
C670        C  0.94151899  0.65881867  0.14138252    -0.09900
C671        C  0.94051369  0.68649500  0.16156778    -0.11400
C672        C  0.77191330  0.51465068  0.37315941    -0.09900
C673        C  0.79904997  0.51678869  0.39390997    -0.11400
C674        C  0.76831603  0.51227124  0.25389723    -0.09900
C675        C  0.79582950  0.51326382  0.21712111    -0.11400
C676        C  0.61779567  0.51757246  0.27726954    -0.09900
C677        C  0.59026299  0.52158972  0.31197509    -0.11400
C678        C  0.61425127  0.51100216  0.15978156    -0.09900
C679        C  0.58744795  0.51421113  0.13704112    -0.11400
N680        N  0.64903494  0.01018847  0.73715203    -0.00100
C681        C  0.64746671  0.00627338  0.68433822     0.02500
C682        C  0.68196315  0.49617749  0.65711620    -0.20400
C683        C  0.70579068  0.49381189  0.69491899    -0.20600
C684        C  0.68503405  0.50290992  0.74410358     0.02400
H685        H  0.68895513  0.49050678  0.61482647     0.16200
H686        H  0.73472814  0.48512714  0.68700043     0.16200
N687        N  0.73681115  0.50966512  0.79795316    -0.00100
C688        C  0.73824986  0.51036820  0.85204125     0.02500
C689        C  0.70305154  0.50519405  0.88519375    -0.20400
C690        C  0.67891293  0.50130674  0.84985093    -0.20600
C691        C  0.70021642  0.50453259  0.79586815     0.02400
H692        H  0.69574001  0.50377334  0.93023971     0.16200
H693        H  0.64930504  0.49559247  0.86343082     0.16200
N694        N  0.93863841  0.72297316  0.73706599    -0.00100
C695        C  0.93814068  0.72065370  0.68326409     0.02500
C696        C  0.93359929  0.75542916  0.65198768    -0.20400
C697        C  0.93121776  0.78020896  0.68822815    -0.20600
C698        C  0.93468127  0.75971086  0.74077611     0.02400
H699        H  0.93149359  0.76205870  0.60797391     0.16200
H700        H  0.92621748  0.80969093  0.67660437     0.16200
N701        N  0.93989921  0.81209413  0.79420362    -0.00100
C702        C  0.93767523  0.81433433  0.84873894     0.02500
C703        C  0.93018288  0.77988081  0.88271554    -0.20400
C704        C  0.92769240  0.75538672  0.84748305    -0.20600
C705        C  0.93415390  0.77567751  0.79264068     0.02400
H706        H  0.92614427  0.77333160  0.92819078     0.16200
H707        H  0.92054504  0.72630415  0.86185407     0.16200
C708        C  0.55656804  0.51661775  0.60793359     0.45900
N709        N  0.52214122  0.00164063  0.55440569     0.04800
C710        C  0.90758756  0.61722401  0.90150637    -0.03100
H711        H  0.87861418  0.61749420  0.61739652     0.10300
C712        C  0.84470236  0.98031835  0.65175205    -0.03500
Co713      Co  0.98964113  0.56835261  0.98893276     0.74200
N714        N  0.92118284  0.59208041  0.56238979    -0.22600
Co715      Co  0.89225192  0.56331716  0.51837278     0.74100
C716        C  0.82831721  0.51302444  0.67318247     0.46000
N717        N  0.92939195  0.93828776  0.59799400     0.04400
N718        N  0.86467431  0.53098823  0.59358416     0.04500
N719        N  0.97102174  0.62016465  0.88432507    -0.43500
H720        H  0.54687248  0.57939967  0.57860953     0.10200
N721        N  0.95817370  0.59419890  0.55127520     0.04800
N722        N  0.86466381  0.53292502  0.97448320     0.04500
C723        C  0.83040465  0.51640756  0.92174473     0.46100
N724        N  0.96638600  0.94019128  0.58590283    -0.22100
C725        C  0.54214159  0.55515449  0.87788315    -0.03000
N726        N  0.54401643  0.98748015  0.59043202    -0.43200
N727        N  0.84249320  0.54625001  0.93835215    -0.43400
C728        C  0.55774835  0.52248592  0.85557028     0.45900
N729        N  0.95796288  0.59698048  0.93207030     0.04800
N730        N  0.96541894  0.94268073  0.96709157    -0.22100
N731        N  0.52019393  0.53842660  0.54640397    -0.22600
N732        N  0.92845438  0.94049132  0.97910386     0.04400
H733        H  0.00750455  0.91649497  0.91230217     0.10300
H734        H  0.84077209  0.95409801  0.95286573     0.10300
N735        N  0.92095802  0.59483255  0.94320186    -0.22700
N736        N  0.86698688  0.99419543  0.60246273    -0.22300
N737        N  0.52165492  0.00434965  0.93537468     0.04800
C738        C  0.94114245  0.62702186  0.61509842     0.46200
C739        C  0.98022278  0.91788320  0.62719591    -0.03500
N740        N  0.86688628  0.49612605  0.98352279    -0.22300
H741        H  0.83876002  0.95105688  0.66844690     0.10300
N742        N  0.97125742  0.61538484  0.58130368    -0.43500
H743        H  0.00961213  0.91216257  0.62760027     0.10300
C744        C  0.94472645  0.90690128  0.91618183     0.46000
C745        C  0.54146430  0.55052027  0.57822256    -0.03000
Co746      Co  0.99449328  0.97169646  0.51053407     0.73800
N747        N  0.91677678  0.91523677  0.64606029    -0.43200
C748        C  0.94085432  0.63339844  0.86233472     0.46300
N749        N  0.54433711  0.99206100  0.89379752    -0.43200
Co750      Co  0.89738883  0.96667972  0.54122722     0.73900
C751        C  0.84591935  0.98319114  0.95221621    -0.03500
C752        C  0.90790712  0.61217636  0.60207495    -0.03100
N753        N  0.51994486  0.54115651  0.92724725    -0.22600
N754        N  0.84142685  0.54339334  0.63458012    -0.43400
H755        H  0.87828110  0.62289099  0.90032826     0.10300
C756        C  0.97830310  0.92199142  0.92796465    -0.03500
Cl757      Cl  0.94343005  0.51751631  0.51475676    -0.46500
C758        C  0.94727835  0.90193013  0.66722788     0.46000
H759        H  0.54835044  0.58440442  0.86154129     0.10800
N760        N  0.91495436  0.91892739  0.95007775    -0.43200
C761        C  0.94331347  0.87548376  0.88941033    -0.09900
C762        C  0.94116701  0.84817705  0.86937621    -0.11400
C763        C  0.94446593  0.84304681  0.74948587    -0.09900
C764        C  0.94667487  0.87014412  0.71211836    -0.11400
C765        C  0.94101579  0.69199742  0.78023003    -0.09900
C766        C  0.94171061  0.66500947  0.81710891    -0.11400
C767        C  0.94151854  0.65881869  0.64138280    -0.09900
C768        C  0.94051269  0.68649501  0.66156826    -0.11400
C769        C  0.77191317  0.51465076  0.87315930    -0.09900
C770        C  0.79904990  0.51678874  0.89390976    -0.11400
C771        C  0.76831591  0.51227127  0.75389709    -0.09900
C772        C  0.79582936  0.51326373  0.71712098    -0.11400
C773        C  0.61779562  0.51757264  0.77726947    -0.09900
C774        C  0.59026303  0.52158994  0.81197519    -0.11400
C775        C  0.61425111  0.51100198  0.65978155    -0.09900
C776        C  0.58744783  0.51421091  0.63704100    -0.11400
loop_ 
_geom_bond_atom_site_label_1 
_geom_bond_atom_site_label_2 
_geom_bond_distance 
_geom_bond_site_symmetry_2 
_ccdc_geom_bond_type 
N1            C2   1.349       .  A
N1          C199   1.361       .  A
N1          C288   1.409       .  S
C2          C197   1.375       .  A
C2          C290   1.442       .  S
C3            C4   1.379       .  A
C3          C196   1.375   1_565  A
C3            H6   1.082       .  S
C4            C5   1.390   1_565  A
C4            H7   1.078       .  S
C5          N195   1.361       .  A
C5           C12   1.497       .  S
N8           C12   1.361       .  A
N8            C9   1.350       .  A
N8           C92   1.409       .  S
C9           C10   1.376       .  A
C9           C90   1.443       .  S
C10          C11   1.379       .  A
C10          H13   1.082       .  S
C11          C12   1.390       .  A
C11          H14   1.078   1_545  S
N15          C19   1.362       .  A
N15          C16   1.349       .  A
N15          C86   1.408       .  S
C16          C17   1.374       .  A
C16          C89   1.442       .  S
C17          C18   1.378       .  A
C17          H20   1.082       .  S
C18          C19   1.392       .  A
C18          H21   1.077       .  S
C19          C26   1.501       .  S
N22          C26   1.362       .  A
N22          C23   1.350       .  A
N22          C84   1.408       .  S
C23          C24   1.374       .  A
C23          C83   1.442       .  S
C24          C25   1.378       .  A
C24          H27   1.082       .  S
C25          C26   1.392       .  A
C25          H28   1.077       .  S
C29         N241   1.347   1_545  A
C29          C97   1.435       .  S
C29          C66   1.457       .  S
N30          N47   1.324       .  A
N30         N246   1.320       .  A
N30        Co455   2.081   1_455  S
C31          N56   1.342       .  A
C31          H76   1.082       .  S
C31          C69   1.457       .  S
H32          C73   1.082       .  S
C33          N57   1.342       .  A
C33          H62   1.082       .  S
C33         C231   1.458       .  S
Co34         N50   2.086       .  S
Co34        N537   2.087       .  S
Co34        N139   2.088       .  S
Co34        N462   2.089       .  S
Co34       Cl175   2.455       .  S
N35          C73   1.340       .  A
N35          N42   1.320       .  A
N35         Co36   2.085       .  S
Co36         N39   2.088       .  S
Co36        N153   2.089   1_554  S
Co36        N140   2.091   1_554  S
Co36        Cl78   2.453       .  S
C37          N75   1.349       .  A
C37          C93   1.440       .  S
C37         C227   1.458   1_545  S
N38          N45   1.320       .  A
N38          N68   1.325       .  A
N38         Co71   2.089       .  S
N39          N75   1.326       .  A
N39         N251   1.320   1_545  A
N40          C69   1.348       .  A
N40          N50   1.325       .  A
H41          C66   1.082       .  S
N42          N63   1.325       .  A
N42        Co131   2.088   1_554  S
N43          N61   1.320   1_545  A
N43          N48   1.327       .  A
N43        Co133   2.091       .  S
C44          N48   1.351       .  A
C44          C91   1.437       .  S
C44         C266   1.454   1_545  S
N45          C60   1.342       .  A
N45         Co67   2.085       .  S
C46          N74   1.343       .  A
C46          H80   1.082       .  S
C46          C49   1.459       .  S
N47         C223   1.347       .  A
C49         N264   1.348   1_545  A
C49          C95   1.439       .  S
N50          N56   1.321       .  A
N51          C77   1.342       .  A
N51          N53   1.320       .  A
N51        Co164   2.084       .  S
N52          C66   1.342       .  A
N52         N224   1.320       .  A
N52        Co519   2.087   1_454  S
N53          N81   1.324       .  A
N53        Co168   2.085       .  S
H54          C77   1.082       .  S
H55          C72   1.082       .  S
N56        Co133   2.089       .  S
N57         N233   1.320       .  A
N57         Co71   2.089       .  S
N58          N70   1.324       .  A
N58         N268   1.320       .  A
N58        Co552   2.087   1_455  S
C59          N63   1.349       .  A
C59          C88   1.436       .  S
C59          C73   1.456       .  S
C60          H64   1.082       .  S
C60          C79   1.456       .  S
N61         C266   1.339       .  A
N61        Co362   2.083       .  S
C65          N81   1.348       .  A
C65          C82   1.436       .  S
C65          C77   1.457       .  S
Co67        N418   2.081       .  S
Co67        N148   2.084   1_554  S
Co67        N543   2.087   1_554  S
Co67       Cl272   2.451       .  S
N68          C79   1.350       .  A
C69          C87   1.438       .  S
N70         C243   1.348       .  A
Co71        N150   2.085   1_554  S
Co71        N352   2.083   1_554  S
Co71       Cl272   2.451       .  S
C72         N255   1.339       .  A
C72         C238   1.454       .  S
N74         N252   1.320       .  A
N74        Co422   2.089   1_455  S
Cl78       Co131   2.455   1_554  S
Cl78       Co261   2.451   1_545  S
Cl78       Co265   2.451   1_545  S
C79          C85   1.438       .  S
C82          C83   1.206       .  T
C84          C85   1.208       .  T
C86          C87   1.208       .  T
C88          C89   1.206       .  T
C90          C91   1.206       .  T
C92          C93   1.209       .  T
C94         N195   1.409       .  S
C94          C95   1.208       .  T
C96         C196   1.442       .  S
C96          C97   1.205       .  T
N98         C296   1.361       .  A
N98          C99   1.349       .  A
N98         C385   1.409       .  S
C99         C294   1.375       .  A
C99         C387   1.442       .  S
C100        C293   1.375   1_565  A
C100        C101   1.379       .  A
C100        H103   1.082       .  S
C101        C102   1.390   1_565  A
C101        H104   1.078       .  S
C102        N292   1.361       .  A
C102        C109   1.497       .  S
N105        C109   1.361       .  A
N105        C106   1.350       .  A
N105        C189   1.409       .  S
C106        C107   1.376       .  A
C106        C187   1.443       .  S
C107        C108   1.379       .  A
C107        H110   1.082       .  S
C108        C109   1.390       .  A
C108        H111   1.078   1_545  S
N112        C116   1.362       .  A
N112        C113   1.349       .  A
N112        C183   1.408       .  S
C113        C114   1.374       .  A
C113        C186   1.442       .  S
C114        C115   1.378       .  A
C114        H117   1.082       .  S
C115        C116   1.392       .  A
C115        H118   1.077       .  S
C116        C123   1.501       .  S
N119        C123   1.362       .  A
N119        C120   1.350       .  A
N119        C181   1.408       .  S
C120        C121   1.374       .  A
C120        C180   1.442       .  S
C121        C122   1.378       .  A
C121        H124   1.082       .  S
C122        C123   1.392       .  A
C122        H125   1.077       .  S
C126        N338   1.347   1_545  A
C126        C194   1.435       .  S
C126        C163   1.457       .  S
N127        N144   1.324       .  A
N127        N343   1.320       .  A
N127       Co552   2.081   1_455  S
C128        N153   1.342       .  A
C128        H173   1.082       .  S
C128        C166   1.457       .  S
H129        C170   1.082       .  S
C130        N154   1.342       .  A
C130        H159   1.082       .  S
C130        C328   1.458       .  S
Co131       N440   2.087   1_556  S
Co131       N559   2.089       .  S
Co131       N147   2.086       .  S
N132        C170   1.340       .  A
N132        N139   1.320       .  A
N132       Co133   2.085       .  S
Co133       N136   2.088       .  S
Co133      Cl175   2.453       .  S
C134        N172   1.349       .  A
C134        C190   1.440       .  S
C134        C324   1.458   1_545  S
N135        N142   1.320       .  A
N135        N165   1.325       .  A
N135       Co168   2.089       .  S
N136        N348   1.320   1_545  A
N136        N172   1.326       .  A
N137        C166   1.348       .  A
N137        N147   1.325       .  A
H138        C163   1.082       .  S
N139        N160   1.325       .  A
N140        N158   1.320   1_545  A
N140        N145   1.327       .  A
C141        N145   1.351       .  A
C141        C188   1.437       .  S
C141        C363   1.454   1_545  S
N142        C157   1.342       .  A
N142       Co164   2.085       .  S
C143        N171   1.343       .  A
C143        H177   1.082       .  S
C143        C146   1.459       .  S
N144        C320   1.347       .  A
C146        N361   1.348   1_545  A
C146        C192   1.439       .  S
N147        N153   1.321       .  A
N148        C174   1.342       .  A
N148        N150   1.320       .  A
N149        C163   1.342       .  A
N149        N321   1.320       .  A
N149       Co422   2.087   1_455  S
N150        N178   1.324       .  A
H151        C174   1.082       .  S
H152        C169   1.082       .  S
N154        N330   1.320       .  A
N154       Co168   2.089       .  S
N155        N167   1.324       .  A
N155        N365   1.320       .  A
N155       Co455   2.087   1_456  S
C156        N160   1.349       .  A
C156        C185   1.436       .  S
C156        C170   1.456       .  S
C157        H161   1.082       .  S
C157        C176   1.456       .  S
N158        C363   1.339       .  A
N158       Co265   2.083   1_556  S
C162        N178   1.348       .  A
C162        C179   1.436       .  S
C162        C174   1.457       .  S
Co164       N515   2.081       .  S
Co164       N446   2.087       .  S
Co164      Cl369   2.451       .  S
N165        C176   1.350       .  A
C166        C184   1.438       .  S
N167        C340   1.348       .  A
Co168       N255   2.083       .  S
Co168      Cl369   2.451       .  S
C169        N352   1.339       .  A
C169        C335   1.454       .  S
N171        N349   1.320       .  A
N171       Co519   2.089   1_455  S
Cl175      Co358   2.451   1_545  S
Cl175      Co362   2.451   1_545  S
C176        C182   1.438       .  S
C179        C180   1.206       .  T
C181        C182   1.208       .  T
C183        C184   1.208       .  T
C185        C186   1.206       .  T
C187        C188   1.206       .  T
C189        C190   1.209       .  T
C191        N292   1.409       .  S
C191        C192   1.208       .  T
C193        C293   1.442       .  S
C193        C194   1.205       .  T
N195        C196   1.349       .  A
C197        C198   1.379       .  A
C197        H200   1.082       .  S
C198        C199   1.390       .  A
C198        H201   1.078       .  S
C199        C206   1.497       .  S
N202        C206   1.361       .  A
N202        C203   1.350       .  A
N202        C286   1.409       .  S
C203        C204   1.376       .  A
C203        C284   1.443       .  S
C204        C205   1.379       .  A
C204        H207   1.082       .  S
C205        C206   1.390       .  A
C205        H208   1.078       .  S
N209        C213   1.362       .  A
N209        C210   1.349       .  A
N209        C280   1.408       .  S
C210        C211   1.374       .  A
C210        C283   1.442       .  S
C211        C212   1.378       .  A
C211        H214   1.082       .  S
C212        C213   1.392       .  A
C212        H215   1.077       .  S
C213        C220   1.501       .  S
N216        C220   1.362       .  A
N216        C217   1.350       .  A
N216        C278   1.408       .  S
C217        C218   1.374       .  A
C217        C277   1.442       .  S
C218        C219   1.378       .  A
C218        H221   1.082       .  S
C219        C220   1.392       .  A
C219        H222   1.077       .  S
C223        C291   1.435       .  S
C223        C260   1.457       .  S
N224        N241   1.324   1_545  A
N224       Co649   2.081   1_445  S
C225        N250   1.342       .  A
C225        H270   1.082       .  S
C225        C263   1.457       .  S
H226        C267   1.082       .  S
C227        N251   1.342       .  A
C227        H256   1.082       .  S
Co228       N731   2.087       .  S
Co228       N333   2.088       .  S
Co228       N656   2.089       .  S
Co228       N244   2.086       .  S
Co228      Cl369   2.455       .  S
N229        C267   1.340       .  A
N229        N236   1.320       .  A
N229       Co230   2.085       .  S
Co230       N233   2.088       .  S
Co230       N347   2.089   1_554  S
Co230       N334   2.091   1_554  S
Co230      Cl272   2.453       .  S
C231        N269   1.349       .  A
C231        C287   1.440       .  S
N232        N239   1.320       .  A
N232        N262   1.325       .  A
N232       Co265   2.089       .  S
N233        N269   1.326       .  A
N234        C263   1.348       .  A
N234        N244   1.325       .  A
H235        C260   1.082       .  S
N236        N257   1.325       .  A
N236       Co325   2.088   1_554  S
N237        N255   1.320       .  A
N237        N242   1.327       .  A
N237       Co327   2.091       .  S
C238        N242   1.351       .  A
C238        C285   1.437       .  S
N239        C254   1.342       .  A
N239       Co261   2.085       .  S
C240        N268   1.343       .  A
C240        H274   1.082       .  S
C240        C243   1.459       .  S
C243        C289   1.439       .  S
N244        N250   1.321       .  A
N245        C271   1.342       .  A
N245        N247   1.320       .  A
N245       Co358   2.084       .  S
N246        C260   1.342       .  A
N246       Co713   2.087   1_454  S
N247        N275   1.324       .  A
N247       Co362   2.085       .  S
H248        C271   1.082       .  S
H249        C266   1.082       .  S
N250       Co327   2.089       .  S
N251       Co265   2.089       .  S
N252        N264   1.324   1_545  A
N252       Co746   2.087   1_445  S
C253        N257   1.349       .  A
C253        C282   1.436       .  S
C253        C267   1.456       .  S
C254        H258   1.082       .  S
C254        C273   1.456       .  S
C259        N275   1.348       .  A
C259        C276   1.436       .  S
C259        C271   1.457       .  S
Co261       N612   2.081   1_565  S
Co261       N342   2.084   1_554  S
Co261       N737   2.087   1_564  S
N262        C273   1.350       .  A
C263        C281   1.438       .  S
Co265       N344   2.085   1_554  S
N268       Co616   2.089   1_455  S
Cl272      Co325   2.455   1_554  S
C273        C279   1.438       .  S
C276        C277   1.206       .  T
C278        C279   1.208       .  T
C280        C281   1.208       .  T
C282        C283   1.206       .  T
C284        C285   1.206       .  T
C286        C287   1.209       .  T
C288        C289   1.208       .  T
C290        C291   1.205       .  T
N292        C293   1.349       .  A
C294        C295   1.379       .  A
C294        H297   1.082       .  S
C295        C296   1.390       .  A
C295        H298   1.078       .  S
C296        C303   1.497       .  S
N299        C303   1.361       .  A
N299        C300   1.350       .  A
N299        C383   1.409       .  S
C300        C301   1.376       .  A
C300        C381   1.443       .  S
C301        C302   1.379       .  A
C301        H304   1.082       .  S
C302        C303   1.390       .  A
C302        H305   1.078       .  S
N306        C310   1.362       .  A
N306        C307   1.349       .  A
N306        C377   1.408       .  S
C307        C308   1.374       .  A
C307        C380   1.442       .  S
C308        C309   1.378       .  A
C308        H311   1.082       .  S
C309        C310   1.392       .  A
C309        H312   1.077       .  S
C310        C317   1.501       .  S
N313        C317   1.362       .  A
N313        C314   1.350       .  A
N313        C375   1.408       .  S
C314        C315   1.374       .  A
C314        C374   1.442       .  S
C315        C316   1.378       .  A
C315        H318   1.082       .  S
C316        C317   1.392       .  A
C316        H319   1.077       .  S
C320        C388   1.435       .  S
C320        C357   1.457       .  S
N321        N338   1.324   1_545  A
N321       Co746   2.081   1_445  S
C322        N347   1.342       .  A
C322        H367   1.082       .  S
C322        C360   1.457       .  S
H323        C364   1.082       .  S
C324        N348   1.342       .  A
C324        H353   1.082       .  S
Co325       N634   2.087   1_556  S
Co325       N753   2.089       .  S
Co325       N341   2.086       .  S
N326        C364   1.340       .  A
N326        N333   1.320       .  A
N326       Co327   2.085       .  S
Co327       N330   2.088       .  S
Co327      Cl369   2.453       .  S
C328        N366   1.349       .  A
C328        C384   1.440       .  S
N329        N336   1.320       .  A
N329        N359   1.325       .  A
N329       Co362   2.089       .  S
N330        N366   1.326       .  A
N331        C360   1.348       .  A
N331        N341   1.325       .  A
H332        C357   1.082       .  S
N333        N354   1.325       .  A
N334        N352   1.320       .  A
N334        N339   1.327       .  A
C335        N339   1.351       .  A
C335        C382   1.437       .  S
N336        C351   1.342       .  A
N336       Co358   2.085       .  S
C337        N365   1.343       .  A
C337        H371   1.082       .  S
C337        C340   1.459       .  S
C340        C386   1.439       .  S
N341        N347   1.321       .  A
N342        C368   1.342       .  A
N342        N344   1.320       .  A
N343        C357   1.342       .  A
N343       Co616   2.087   1_455  S
N344        N372   1.324       .  A
H345        C368   1.082       .  S
H346        C363   1.082       .  S
N348       Co362   2.089       .  S
N349        N361   1.324   1_545  A
N349       Co649   2.087   1_446  S
C350        N354   1.349       .  A
C350        C379   1.436       .  S
C350        C364   1.456       .  S
C351        H355   1.082       .  S
C351        C370   1.456       .  S
C356        N372   1.348       .  A
C356        C373   1.436       .  S
C356        C368   1.457       .  S
Co358       N709   2.081   1_565  S
Co358       N640   2.087   1_565  S
N359        C370   1.350       .  A
C360        C378   1.438       .  S
N365       Co713   2.089   1_455  S
C370        C376   1.438       .  S
C373        C374   1.206       .  T
C375        C376   1.208       .  T
C377        C378   1.208       .  T
C379        C380   1.206       .  T
C381        C382   1.206       .  T
C383        C384   1.209       .  T
C385        C386   1.208       .  T
C387        C388   1.205       .  T
N389        C587   1.361       .  A
N389        C390   1.349       .  A
N389        C676   1.409       .  S
C390        C585   1.375       .  A
C390        C678   1.442       .  S
C391        C584   1.375   1_565  A
C391        C392   1.379       .  A
C391        H394   1.082       .  S
C392        C393   1.390   1_565  A
C392        H395   1.078       .  S
C393        N583   1.361       .  A
C393        C400   1.497       .  S
N396        C400   1.361       .  A
N396        C397   1.350       .  A
N396        C480   1.409       .  S
C397        C398   1.376       .  A
C397        C478   1.443       .  S
C398        C399   1.379       .  A
C398        H401   1.082       .  S
C399        C400   1.390       .  A
C399        H402   1.078   1_545  S
N403        C407   1.362       .  A
N403        C404   1.349       .  A
N403        C474   1.408       .  S
C404        C405   1.374       .  A
C404        C477   1.442       .  S
C405        C406   1.378       .  A
C405        H408   1.082       .  S
C406        C407   1.392       .  A
C406        H409   1.077       .  S
C407        C414   1.501       .  S
N410        C414   1.362       .  A
N410        C411   1.350       .  A
N410        C472   1.408       .  S
C411        C412   1.374       .  A
C411        C471   1.442       .  S
C412        C413   1.378       .  A
C412        H415   1.082       .  S
C413        C414   1.392       .  A
C413        H416   1.077       .  S
C417        N629   1.347   1_545  A
C417        C485   1.435       .  S
C417        C454   1.457       .  S
N418        N435   1.324       .  A
N418        N634   1.320       .  A
C419        N444   1.342       .  A
C419        H464   1.082       .  S
C419        C457   1.457       .  S
H420        C461   1.082       .  S
C421        N445   1.342       .  A
C421        H450   1.082       .  S
C421        C619   1.458       .  S
Co422       N527   2.088       .  S
Co422       N438   2.086       .  S
Co422      Cl563   2.455       .  S
N423        C461   1.340       .  A
N423        N430   1.320       .  A
N423       Co424   2.085       .  S
Co424       N427   2.088       .  S
Co424       N541   2.089   1_554  S
Co424       N528   2.091   1_554  S
Co424      Cl466   2.453       .  S
C425        N463   1.349       .  A
C425        C481   1.440       .  S
C425        C615   1.458   1_545  S
N426        N433   1.320       .  A
N426        N456   1.325       .  A
N426       Co459   2.089       .  S
N427        N639   1.320   1_545  A
N427        N463   1.326       .  A
N428        C457   1.348       .  A
N428        N438   1.325       .  A
H429        C454   1.082       .  S
N430        N451   1.325       .  A
N430       Co519   2.088   1_554  S
N431        N449   1.320   1_545  A
N431        N436   1.327       .  A
N431       Co521   2.091       .  S
C432        N436   1.351       .  A
C432        C479   1.437       .  S
C432        C654   1.454   1_545  S
N433        C448   1.342       .  A
N433       Co455   2.085       .  S
C434        N462   1.343       .  A
C434        H468   1.082       .  S
C434        C437   1.459       .  S
N435        C611   1.347       .  A
C437        N652   1.348   1_545  A
C437        C483   1.439       .  S
N438        N444   1.321       .  A
N439        C465   1.342       .  A
N439        N441   1.320       .  A
N439       Co552   2.084       .  S
N440        C454   1.342       .  A
N440        N612   1.320       .  A
N441        N469   1.324       .  A
N441       Co556   2.085       .  S
H442        C465   1.082   1_455  S
H443        C460   1.082       .  S
N444       Co521   2.089       .  S
N445        N621   1.320       .  A
N445       Co459   2.089       .  S
N446        N458   1.324       .  A
N446        N656   1.320       .  A
C447        N451   1.349       .  A
C447        C476   1.436       .  S
C447        C461   1.456       .  S
C448        H452   1.082   1_655  S
C448        C467   1.456       .  S
N449        C654   1.339       .  A
N449       Co750   2.083       .  S
C453        N469   1.348       .  A
C453        C470   1.436       .  S
C453        C465   1.457       .  S
Co455       N536   2.084   1_554  S
Co455      Cl660   2.451       .  S
N456        C467   1.350       .  A
C457        C475   1.438       .  S
N458        C631   1.348       .  A
Co459       N538   2.085   1_554  S
Co459       N740   2.083   1_554  S
Co459      Cl660   2.451       .  S
C460        N643   1.339       .  A
C460        C626   1.454       .  S
N462        N640   1.320       .  A
Cl466      Co519   2.455   1_554  S
Cl466      Co649   2.451   1_545  S
Cl466      Co653   2.451   1_545  S
C467        C473   1.438       .  S
C470        C471   1.206       .  T
C472        C473   1.208       .  T
C474        C475   1.208       .  T
C476        C477   1.206       .  T
C478        C479   1.206       .  T
C480        C481   1.209       .  T
C482        N583   1.409       .  S
C482        C483   1.208       .  T
C484        C584   1.442       .  S
C484        C485   1.205       .  T
N486        C684   1.361       .  A
N486        C487   1.349       .  A
N486        C773   1.409       .  S
C487        C682   1.375       .  A
C487        C775   1.442       .  S
C488        C681   1.375   1_565  A
C488        C489   1.379       .  A
C488        H491   1.082       .  S
C489        C490   1.390   1_565  A
C489        H492   1.078       .  S
C490        N680   1.361       .  A
C490        C497   1.497       .  S
N493        C497   1.361       .  A
N493        C494   1.350       .  A
N493        C577   1.409       .  S
C494        C495   1.376       .  A
C494        C575   1.443       .  S
C495        C496   1.379       .  A
C495        H498   1.082       .  S
C496        C497   1.390       .  A
C496        H499   1.078   1_545  S
N500        C504   1.362       .  A
N500        C501   1.349       .  A
N500        C571   1.408       .  S
C501        C502   1.374       .  A
C501        C574   1.442       .  S
C502        C503   1.378       .  A
C502        H505   1.082       .  S
C503        C504   1.392       .  A
C503        H506   1.077       .  S
C504        C511   1.501       .  S
N507        C511   1.362       .  A
N507        C508   1.350       .  A
N507        C569   1.408       .  S
C508        C509   1.374       .  A
C508        C568   1.442       .  S
C509        C510   1.378       .  A
C509        H512   1.082       .  S
C510        C511   1.392       .  A
C510        H513   1.077       .  S
C514        N726   1.347   1_545  A
C514        C582   1.435       .  S
C514        C551   1.457       .  S
N515        N532   1.324       .  A
N515        N731   1.320       .  A
C516        N541   1.342       .  A
C516        H561   1.082       .  S
C516        C554   1.457       .  S
H517        C558   1.082       .  S
C518        N542   1.342       .  A
C518        H547   1.082       .  S
C518        C716   1.458       .  S
Co519       N535   2.086       .  S
N520        C558   1.340       .  A
N520        N527   1.320       .  A
N520       Co521   2.085       .  S
Co521       N524   2.088       .  S
Co521      Cl563   2.453       .  S
C522        N560   1.349       .  A
C522        C578   1.440       .  S
C522        C712   1.458   1_545  S
N523        N530   1.320       .  A
N523        N553   1.325       .  A
N523       Co556   2.089       .  S
N524        N736   1.320   1_545  A
N524        N560   1.326       .  A
N525        C554   1.348       .  A
N525        N535   1.325       .  A
H526        C551   1.082       .  S
N527        N548   1.325       .  A
N528        N546   1.320   1_545  A
N528        N533   1.327       .  A
C529        N533   1.351       .  A
C529        C576   1.437       .  S
C529        C751   1.454   1_545  S
N530        C545   1.342       .  A
N530       Co552   2.085       .  S
C531        N559   1.343       .  A
C531        H565   1.082       .  S
C531        C534   1.459       .  S
N532        C708   1.347       .  A
C534        N749   1.348   1_545  A
C534        C580   1.439       .  S
N535        N541   1.321       .  A
N536        C562   1.342       .  A
N536        N538   1.320       .  A
N537        C551   1.342       .  A
N537        N709   1.320       .  A
N538        N566   1.324       .  A
H539        C562   1.082   1_455  S
H540        C557   1.082       .  S
N542        N718   1.320       .  A
N542       Co556   2.089       .  S
N543        N555   1.324       .  A
N543        N753   1.320       .  A
C544        N548   1.349       .  A
C544        C573   1.436       .  S
C544        C558   1.456       .  S
C545        H549   1.082   1_655  S
C545        C564   1.456       .  S
N546        C751   1.339       .  A
N546       Co653   2.083   1_556  S
C550        N566   1.348       .  A
C550        C567   1.436       .  S
C550        C562   1.457       .  S
Co552      Cl757   2.451       .  S
N553        C564   1.350       .  A
C554        C572   1.438       .  S
N555        C728   1.348       .  A
Co556       N643   2.083       .  S
Co556      Cl757   2.451       .  S
C557        N740   1.339       .  A
C557        C723   1.454       .  S
N559        N737   1.320       .  A
Cl563      Co746   2.451   1_545  S
Cl563      Co750   2.451   1_545  S
C564        C570   1.438       .  S
C567        C568   1.206       .  T
C569        C570   1.208       .  T
C571        C572   1.208       .  T
C573        C574   1.206       .  T
C575        C576   1.206       .  T
C577        C578   1.209       .  T
C579        N680   1.409       .  S
C579        C580   1.208       .  T
C581        C681   1.442       .  S
C581        C582   1.205       .  T
N583        C584   1.349       .  A
C585        C586   1.379       .  A
C585        H588   1.082       .  S
C586        C587   1.390       .  A
C586        H589   1.078       .  S
C587        C594   1.497       .  S
N590        C594   1.361       .  A
N590        C591   1.350       .  A
N590        C674   1.409       .  S
C591        C592   1.376       .  A
C591        C672   1.443       .  S
C592        C593   1.379       .  A
C592        H595   1.082       .  S
C593        C594   1.390       .  A
C593        H596   1.078       .  S
N597        C601   1.362       .  A
N597        C598   1.349       .  A
N597        C668   1.408       .  S
C598        C599   1.374       .  A
C598        C671   1.442       .  S
C599        C600   1.378       .  A
C599        H602   1.082       .  S
C600        C601   1.392       .  A
C600        H603   1.077       .  S
C601        C608   1.501       .  S
N604        C608   1.362       .  A
N604        C605   1.350       .  A
N604        C666   1.408       .  S
C605        C606   1.374       .  A
C605        C665   1.442       .  S
C606        C607   1.378       .  A
C606        H609   1.082       .  S
C607        C608   1.392       .  A
C607        H610   1.077       .  S
C611        C679   1.435       .  S
C611        C648   1.457       .  S
N612        N629   1.324   1_545  A
C613        N638   1.342       .  A
C613        H658   1.082       .  S
C613        C651   1.457       .  S
H614        C655   1.082       .  S
C615        N639   1.342       .  A
C615        H644   1.082       .  S
Co616       N721   2.088       .  S
Co616       N632   2.086       .  S
Co616      Cl757   2.455       .  S
N617        C655   1.340       .  A
N617        N624   1.320       .  A
N617       Co618   2.085       .  S
Co618       N621   2.088       .  S
Co618       N735   2.089   1_554  S
Co618       N722   2.091   1_554  S
Co618      Cl660   2.453       .  S
C619        N657   1.349       .  A
C619        C675   1.440       .  S
N620        N627   1.320       .  A
N620        N650   1.325       .  A
N620       Co653   2.089       .  S
N621        N657   1.326       .  A
N622        C651   1.348       .  A
N622        N632   1.325       .  A
H623        C648   1.082       .  S
N624        N645   1.325       .  A
N624       Co713   2.088   1_554  S
N625        N643   1.320       .  A
N625        N630   1.327       .  A
N625       Co715   2.091       .  S
C626        N630   1.351       .  A
C626        C673   1.437       .  S
N627        C642   1.342       .  A
N627       Co649   2.085       .  S
C628        N656   1.343       .  A
C628        H662   1.082       .  S
C628        C631   1.459       .  S
C631        C677   1.439       .  S
N632        N638   1.321       .  A
N633        C659   1.342       .  A
N633        N635   1.320       .  A
N633       Co746   2.084       .  S
N634        C648   1.342       .  A
N635        N663   1.324       .  A
N635       Co750   2.085       .  S
H636        C659   1.082   1_455  S
H637        C654   1.082       .  S
N638       Co715   2.089       .  S
N639       Co653   2.089       .  S
N640        N652   1.324   1_545  A
C641        N645   1.349       .  A
C641        C670   1.436       .  S
C641        C655   1.456       .  S
C642        H646   1.082   1_655  S
C642        C661   1.456       .  S
C647        N663   1.348       .  A
C647        C664   1.436       .  S
C647        C659   1.457       .  S
Co649       N730   2.084   1_554  S
N650        C661   1.350       .  A
C651        C669   1.438       .  S
Co653       N732   2.085   1_554  S
Cl660      Co713   2.455   1_554  S
C661        C667   1.438       .  S
C664        C665   1.206       .  T
C666        C667   1.208       .  T
C668        C669   1.208       .  T
C670        C671   1.206       .  T
C672        C673   1.206       .  T
C674        C675   1.209       .  T
C676        C677   1.208       .  T
C678        C679   1.205       .  T
N680        C681   1.349       .  A
C682        C683   1.379       .  A
C682        H685   1.082       .  S
C683        C684   1.390       .  A
C683        H686   1.078       .  S
C684        C691   1.497       .  S
N687        C691   1.361       .  A
N687        C688   1.350       .  A
N687        C771   1.409       .  S
C688        C689   1.376       .  A
C688        C769   1.443       .  S
C689        C690   1.379       .  A
C689        H692   1.082       .  S
C690        C691   1.390       .  A
C690        H693   1.078       .  S
N694        C698   1.362       .  A
N694        C695   1.349       .  A
N694        C765   1.408       .  S
C695        C696   1.374       .  A
C695        C768   1.442       .  S
C696        C697   1.378       .  A
C696        H699   1.082       .  S
C697        C698   1.392       .  A
C697        H700   1.077       .  S
C698        C705   1.501       .  S
N701        C705   1.362       .  A
N701        C702   1.350       .  A
N701        C763   1.408       .  S
C702        C703   1.374       .  A
C702        C762   1.442       .  S
C703        C704   1.378       .  A
C703        H706   1.082       .  S
C704        C705   1.392       .  A
C704        H707   1.077       .  S
C708        C776   1.435       .  S
C708        C745   1.457       .  S
N709        N726   1.324   1_545  A
C710        N735   1.342       .  A
C710        H755   1.082       .  S
C710        C748   1.457       .  S
H711        C752   1.082       .  S
C712        N736   1.342       .  A
C712        H741   1.082       .  S
Co713       N729   2.086       .  S
N714        C752   1.340       .  A
N714        N721   1.320       .  A
N714       Co715   2.085       .  S
Co715       N718   2.088       .  S
Co715      Cl757   2.453       .  S
C716        N754   1.349       .  A
C716        C772   1.440       .  S
N717        N724   1.320       .  A
N717        N747   1.325       .  A
N717       Co750   2.089       .  S
N718        N754   1.326       .  A
N719        C748   1.348       .  A
N719        N729   1.325       .  A
H720        C745   1.082       .  S
N721        N742   1.325       .  A
N722        N740   1.320       .  A
N722        N727   1.327       .  A
C723        N727   1.351       .  A
C723        C770   1.437       .  S
N724        C739   1.342       .  A
N724       Co746   2.085       .  S
C725        N753   1.343       .  A
C725        H759   1.082       .  S
C725        C728   1.459       .  S
C728        C774   1.439       .  S
N729        N735   1.321       .  A
N730        C756   1.342       .  A
N730        N732   1.320       .  A
N731        C745   1.342       .  A
N732        N760   1.324       .  A
H733        C756   1.082   1_455  S
H734        C751   1.082       .  S
N736       Co750   2.089       .  S
N737        N749   1.324   1_545  A
C738        N742   1.349       .  A
C738        C767   1.436       .  S
C738        C752   1.456       .  S
C739        H743   1.082   1_655  S
C739        C758   1.456       .  S
C744        N760   1.348       .  A
C744        C761   1.436       .  S
C744        C756   1.457       .  S
N747        C758   1.350       .  A
C748        C766   1.438       .  S
C758        C764   1.438       .  S
C761        C762   1.206       .  T
C763        C764   1.208       .  T
C765        C766   1.208       .  T
C767        C768   1.206       .  T
C769        C770   1.206       .  T
C771        C772   1.209       .  T
C773        C774   1.208       .  T
C775        C776   1.205       .  T
