geometry optimzed in LAMMPS
_audit_creation_date              2020-11-30 
_audit_creation_method            'lammps2cif' 
_symmetry_space_group_name_H-M    'P1' 
_symmetry_Int_Tables_number       1 
_symmetry_cell_setting            triclinic 
loop_ 
_symmetry_equiv_pos_as_xyz 
  x,y,z 
_cell_length_a                    43.63233301 
_cell_length_b                    43.56399292587887 
_cell_length_c                    47.98586996490369 
_cell_angle_alpha                 89.79808153011147 
_cell_angle_beta                  90.08601516932362 
_cell_angle_gamma                 89.91019197075754 
loop_ 
_atom_site_label 
_atom_site_type_symbol 
_atom_site_fract_x 
_atom_site_fract_y 
_atom_site_fract_z 
_atom_site_charge 
O1          O  0.02287809  0.49862896  0.20801266    -0.72200
O2          O  0.02208768  0.00037753  0.12869581    -0.72500
O3          O  0.02294901  0.04297149  0.16872169    -0.72300
O4          O  0.02231034  0.45584684  0.16787349    -0.72300
O5          O  0.47254126  0.45602180  0.16858608    -0.72300
O6          O  0.47316375  0.04348937  0.16876650    -0.72300
O7          O  0.47228363  0.50035514  0.12922839    -0.72200
O8          O  0.47328699  0.99955225  0.20820340    -0.72400
V9          V  0.02160561  0.99940345  0.16822832     1.35200
V10         V  0.47376195  0.99983163  0.16862813     1.35200
C11         C  0.49832193  0.99915017  0.22149937     0.77000
C12         C  0.49706545  0.00102954  0.11548286     0.77100
C13         C  0.99819905  0.05808758  0.16864679     0.76900
C14         C  0.99741498  0.44104359  0.16826043     0.76900
O15         O  0.02468842  0.24816301  0.20841015    -0.72200
O16         O  0.02526019  0.25077956  0.12932414    -0.72500
O17         O  0.02459141  0.29321224  0.16961585    -0.72300
O18         O  0.02520088  0.20580619  0.16803657    -0.72300
O19         O  0.47541890  0.20574637  0.16719160    -0.72300
O20         O  0.47481805  0.29284425  0.16971452    -0.72300
O21         O  0.47542686  0.25102148  0.12904401    -0.72200
O22         O  0.47491764  0.24731435  0.20792801    -0.72400
V23         V  0.02399328  0.24950107  0.16884896     1.35200
V24         V  0.47614096  0.24926198  0.16848849     1.35200
C25         C  0.49967835  0.24683653  0.22160977     0.77000
C26         C  0.50041128  0.25157337  0.11579848     0.77100
C27         C  0.99955180  0.30792243  0.16961594     0.76900
C28         C  0.00032687  0.19091656  0.16757400     0.76900
O29         O  0.22982374  0.99773169  0.20647136    -0.72200
O30         O  0.23057707  0.49741916  0.12757955    -0.72500
O31         O  0.23192134  0.45372844  0.16757833    -0.72300
O32         O  0.22882271  0.04112554  0.16642418    -0.72300
O33         O  0.27858010  0.04268311  0.16679037    -0.72300
O34         O  0.28168462  0.45538130  0.16796069    -0.72300
O35         O  0.28049371  0.99887793  0.12776944    -0.72200
O36         O  0.27967458  0.49974140  0.20715515    -0.72400
V37         V  0.23133150  0.49746082  0.16710574     1.35200
V38         V  0.27913647  0.49905930  0.16745816     1.35200
C39         C  0.25462537  0.49928985  0.22042029     0.77000
C40         C  0.25549424  0.49872219  0.11423372     0.77100
C41         C  0.25732475  0.43967281  0.16794406     0.76900
C42         C  0.25322942  0.05676579  0.16625198     0.76900
O43         O  0.22886833  0.24706473  0.20381680    -0.72200
O44         O  0.22825823  0.25094217  0.12480491    -0.72500
O45         O  0.22732558  0.20524884  0.16286490    -0.72300
O46         O  0.23023426  0.29276466  0.16595797    -0.72300
O47         O  0.27999976  0.29085864  0.16595387    -0.72300
O48         O  0.27708822  0.20390039  0.16216605    -0.72300
O49         O  0.27806452  0.24973783  0.12447900    -0.72200
O50         O  0.27852667  0.24468195  0.20362185    -0.72400
V51         V  0.22962151  0.24899794  0.16432101     1.35200
V52         V  0.27743109  0.24737019  0.16404183     1.35200
C53         C  0.25370128  0.24468095  0.21723042     0.77000
C54         C  0.25300669  0.25106598  0.11121550     0.77100
C55         C  0.25187438  0.18970008  0.16247720     0.76900
C56         C  0.25570576  0.30666686  0.16642639     0.76900
O57         O  0.49610358  0.02868617  0.35578437    -0.72200
O58         O  0.99405812  0.02821917  0.43519354    -0.72500
O59         O  0.03853810  0.03114441  0.39712550    -0.72300
O60         O  0.45170480  0.02595722  0.39441150    -0.72300
O61         O  0.45469698  0.47583530  0.39513678    -0.72300
O62         O  0.04165714  0.48117729  0.39568956    -0.72300
O63         O  0.49794900  0.47806699  0.43487046    -0.72200
O64         O  0.99848331  0.47857413  0.35599034    -0.72400
V65         V  0.49514527  0.02757128  0.39554866     1.35200
V66         V  0.49814347  0.47939403  0.39543204     1.35200
C67         C  0.49716715  0.00375937  0.34229632     0.77000
C68         C  0.49608126  0.00315715  0.44844081     0.77100
C69         C  0.05503901  0.00728192  0.39716916     0.76900
C70         C  0.43834408  0.00023237  0.39456295     0.76900
O71         O  0.49928034  0.26630421  0.35550593    -0.72200
O72         O  0.00014240  0.26791860  0.43420296    -0.72500
O73         O  0.04310972  0.26601938  0.39429406    -0.72300
O74         O  0.45605606  0.26738984  0.39550487    -0.72300
O75         O  0.45551017  0.21800685  0.39496981    -0.72300
O76         O  0.04216864  0.21615501  0.39603488    -0.72300
O77         O  0.49840736  0.21808705  0.43551068    -0.72200
O78         O  0.99903393  0.21655633  0.35598601    -0.72400
V79         V  0.49962174  0.26593084  0.39488637     1.35200
V80         V  0.49882036  0.21812002  0.39568694     1.35200
C81         C  0.49901338  0.24138354  0.34219205     0.77000
C82         C  0.49920666  0.24347852  0.44829853     0.77100
C83         C  0.05737752  0.24073972  0.39483661     0.76900
C84         C  0.44063756  0.24283765  0.39512704     0.76900
O85         O  0.24807655  0.02860069  0.35484244    -0.72200
O86         O  0.24994959  0.02742697  0.43419425    -0.72500
O87         O  0.29222646  0.02589384  0.39378074    -0.72300
O88         O  0.20527959  0.03013046  0.39591117    -0.72300
O89         O  0.20310358  0.48019107  0.39321941    -0.72300
O90         O  0.29012349  0.47557107  0.39467495    -0.72300
O91         O  0.24617345  0.47712633  0.43353557    -0.72200
O92         O  0.24758275  0.47834476  0.35448911    -0.72400
V93         V  0.24877054  0.02708690  0.39458921     1.35200
V94         V  0.24669155  0.47877711  0.39400185     1.35200
C95         C  0.24855224  0.00378572  0.34117330     0.77000
C96         C  0.24835741  0.00231055  0.44731996     0.77100
C97         C  0.30591179  0.00029578  0.39433559     0.76900
C98         C  0.18905104  0.00612760  0.39509270     0.76900
O99         O  0.24921354  0.26454017  0.35046433    -0.72200
O100        O  0.24524525  0.26826432  0.42928037    -0.72500
O101        O  0.29046793  0.26687505  0.39208177    -0.72300
O102        O  0.20358991  0.26533030  0.38821737    -0.72300
O103        O  0.20462967  0.21569270  0.39275352    -0.72300
O104        O  0.29132712  0.21752354  0.39083151    -0.72300
O105        O  0.24904251  0.21858371  0.43157402    -0.72200
O106        O  0.24724400  0.21476905  0.35215526    -0.72400
V107        V  0.24707337  0.26530393  0.38995126     1.35200
V108        V  0.24798861  0.21754749  0.39180750     1.35200
C109        C  0.24894022  0.23914287  0.33781742     0.77000
C110        C  0.24736075  0.24420697  0.44387699     0.77100
C111        C  0.30602550  0.24240099  0.39196011     0.76900
C112        C  0.18932206  0.24021501  0.39064863     0.76900
O113        O  0.04315259  0.02396149  0.53186706    -0.72200
O114        O  0.45581853  0.02606273  0.53317565    -0.72500
O115        O  0.00021033  0.02334370  0.57222025    -0.72300
O116        O  0.49856844  0.02678367  0.49300445    -0.72300
O117        O  0.99632513  0.47669882  0.49169767    -0.72300
O118        O  0.50102804  0.47355897  0.57063178    -0.72300
O119        O  0.45510663  0.47601709  0.53315465    -0.72200
O120        O  0.04209380  0.47431675  0.52868830    -0.72400
V121        V  0.99943793  0.02410343  0.53257555     1.35200
V122        V  0.49866294  0.47614834  0.53111013     1.35200
C123        C  0.05762432  0.49879849  0.52899233     0.77000
C124        C  0.44068015  0.50121291  0.53365043     0.77100
C125        C  0.50145814  0.49794824  0.58480790     0.76900
C126        C  0.49672835  0.00238469  0.47892785     0.76900
O127        O  0.45535478  0.27383360  0.53046749    -0.72200
O128        O  0.04246639  0.27392618  0.52998612    -0.72500
O129        O  0.49870062  0.27091711  0.49082752    -0.72300
O130        O  0.99928978  0.27652902  0.56987823    -0.72300
O131        O  0.49907755  0.22672135  0.57263472    -0.72300
O132        O  0.99922400  0.22110908  0.49363292    -0.72300
O133        O  0.04283241  0.22418247  0.53322332    -0.72200
O134        O  0.45535292  0.22403467  0.53289312    -0.72400
V135        V  0.49894066  0.27281168  0.53035542     1.35200
V136        V  0.99910277  0.22497143  0.53309767     1.35200
C137        C  0.44046530  0.24898371  0.53147065     0.77000
C138        C  0.05751882  0.24915390  0.53133963     0.77100
C139        C  0.49902686  0.24510826  0.47881181     0.76900
C140        C  0.49933830  0.25246665  0.58469369     0.76900
O141        O  0.29212257  0.02547106  0.53166311    -0.72200
O142        O  0.20491401  0.02320792  0.53127274    -0.72500
O143        O  0.24848355  0.02267847  0.57106325    -0.72300
O144        O  0.24843940  0.02590952  0.49190673    -0.72300
O145        O  0.25062759  0.47559672  0.49065116    -0.72300
O146        O  0.24853963  0.47283240  0.56974796    -0.72300
O147        O  0.20619291  0.47332194  0.52882569    -0.72200
O148        O  0.29340199  0.47532810  0.53140380    -0.72400
V149        V  0.24853573  0.02335883  0.53147009     1.35200
V150        V  0.24971795  0.47525145  0.53018642     1.35200
C151        C  0.30764353  0.50060139  0.53226438     0.77000
C152        C  0.19067585  0.49787975  0.52881109     0.77100
C153        C  0.24778356  0.49728886  0.58376659     0.76900
C154        C  0.24935778  0.00143277  0.47782152     0.76900
O155        O  0.24833771  0.22253183  0.48947077    -0.72200
O156        O  0.24909007  0.22888542  0.56843160    -0.72500
O157        O  0.20519546  0.22601311  0.52934946    -0.72300
O158        O  0.29248662  0.22563453  0.52871639    -0.72300
O159        O  0.29252821  0.27539892  0.52571565    -0.72300
O160        O  0.20523153  0.27573661  0.52579467    -0.72300
O161        O  0.24889361  0.27866285  0.56524302    -0.72200
O162        O  0.24853380  0.27230178  0.48617443    -0.72400
V163        V  0.24880483  0.22674820  0.52891165     1.35200
V164        V  0.24884622  0.27455768  0.52574359     1.35200
C165        C  0.24808011  0.24636127  0.47439918     0.77000
C166        C  0.24882207  0.25475411  0.58026981     0.77100
C167        C  0.19035358  0.25094395  0.52785167     0.76900
C168        C  0.30739874  0.25049481  0.52740841     0.76900
O169        O  0.47180299  0.00302460  0.07167636    -0.72200
O170        O  0.47174373  0.50209139  0.99265681    -0.72500
O171        O  0.47237618  0.45907184  0.03293423    -0.72300
O172        O  0.47129152  0.04650733  0.03163604    -0.72300
O173        O  0.02107113  0.04677773  0.03219978    -0.72300
O174        O  0.02212228  0.45962017  0.03205306    -0.72300
O175        O  0.02141186  0.00330876  0.99246861    -0.72200
O176        O  0.02173390  0.50271138  0.07172519    -0.72400
V177        V  0.47277872  0.50271494  0.03227304     1.35200
V178        V  0.02062710  0.50318967  0.03219777     1.35200
C179        C  0.49684112  0.50235178  0.08519526     0.77000
C180        C  0.49660506  0.50221901  0.97919349     0.77100
C181        C  0.49744821  0.44446053  0.03265421     0.76900
C182        C  0.49608534  0.06152468  0.03193376     0.76900
O183        O  0.02399395  0.20863547  0.03327721    -0.72200
O184        O  0.02561443  0.29610746  0.03157369    -0.72500
O185        O  0.02524076  0.25295166  0.07189222    -0.72300
O186        O  0.02462712  0.25110588  0.99272251    -0.72300
O187        O  0.47484215  0.25270563  0.99298326    -0.72300
O188        O  0.47540902  0.25319798  0.07205936    -0.72300
O189        O  0.47587127  0.29672724  0.03248211    -0.72200
O190        O  0.47421213  0.20970783  0.03285072    -0.72400
V191        V  0.02393740  0.25230100  0.03235418     1.35200
V192        V  0.47609067  0.25317246  0.03257022     1.35200
C193        C  0.49876512  0.19433483  0.03318484     0.77000
C194        C  0.50086989  0.31133664  0.03204390     0.77100
C195        C  0.50038976  0.25276180  0.08537375     0.76900
C196        C  0.49959097  0.25091371  0.97941698     0.76900
O197        O  0.23007686  0.04649145  0.03198351    -0.72200
O198        O  0.22884323  0.45950103  0.02977708    -0.72500
O199        O  0.23042269  0.00122756  0.07035983    -0.72300
O200        O  0.22868275  0.50452887  0.99135672    -0.72300
O201        O  0.27900086  0.00368921  0.99074368    -0.72300
O202        O  0.27992623  0.50117075  0.06997577    -0.72300
O203        O  0.27864535  0.45877394  0.02942998    -0.72200
O204        O  0.27981830  0.04629980  0.03103127    -0.72400
V205        V  0.23078059  0.00292663  0.03080504     1.35200
V206        V  0.27819888  0.50247487  0.03036839     1.35200
C207        C  0.25495307  0.06131122  0.03139934     0.77000
C208        C  0.25351950  0.44430341  0.02930503     0.77100
C209        C  0.25520703  0.50040331  0.08368850     0.76900
C210        C  0.25337923  0.50439980  0.97764472     0.76900
O211        O  0.22804309  0.20909092  0.02795993    -0.72200
O212        O  0.22688412  0.29643741  0.02769878    -0.72500
O213        O  0.22731817  0.25274407  0.98806526    -0.72300
O214        O  0.22768930  0.25260607  0.06735505    -0.72300
O215        O  0.27750700  0.25286910  0.06715674    -0.72300
O216        O  0.27712496  0.25358591  0.98807008    -0.72300
O217        O  0.27668252  0.29693068  0.02774375    -0.72200
O218        O  0.27779760  0.20967000  0.02750418    -0.72400
V219        V  0.22843703  0.25275704  0.02773697     1.35200
V220        V  0.27628775  0.25328467  0.02761064     1.35200
C221        C  0.25312257  0.19448486  0.02797535     0.77000
C222        C  0.25161571  0.31154411  0.02776208     0.77100
C223        C  0.25224463  0.25314932  0.97461324     0.76900
C224        C  0.25272728  0.25235828  0.08069270     0.76900
O225        O  0.47151658  0.49467366  0.85623650    -0.72200
O226        O  0.47163149  0.99894989  0.93515053    -0.72500
O227        O  0.46997629  0.04061357  0.89384081    -0.72300
O228        O  0.47360722  0.45324545  0.89756642    -0.72300
O229        O  0.02336382  0.45529986  0.89721670    -0.72300
O230        O  0.01971823  0.04238162  0.89380673    -0.72300
O231        O  0.02150203  0.50068698  0.93517205    -0.72200
O232        O  0.02123646  0.99700728  0.85591921    -0.72400
V233        V  0.47262209  0.99696277  0.89563867     1.35200
V234        V  0.02042186  0.99876032  0.89554459     1.35200
C235        C  0.49632873  0.99523443  0.84248409     0.77000
C236        C  0.49654471  0.00066791  0.94854763     0.77100
C237        C  0.49431181  0.05639129  0.89344238     0.76900
C238        C  0.49913538  0.43942916  0.89768716     0.76900
O239        O  0.47269668  0.25113520  0.85652751    -0.72200
O240        O  0.47402611  0.24883203  0.93572970    -0.72500
O241        O  0.47542083  0.29306235  0.89702631    -0.72300
O242        O  0.47120664  0.20588432  0.89519667    -0.72300
O243        O  0.02090628  0.20343595  0.89516322    -0.72300
O244        O  0.02516317  0.29081154  0.89577037    -0.72300
O245        O  0.02380361  0.24713831  0.93511658    -0.72200
O246        O  0.02222689  0.24763715  0.85576588    -0.72400
V247        V  0.47431850  0.24954262  0.89612349     1.35200
V248        V  0.02207272  0.24719313  0.89547025     1.35200
C249        C  0.49723279  0.25032379  0.84254336     0.77000
C250        C  0.49915786  0.24875233  0.94887437     0.77100
C251        C  0.50093056  0.30674869  0.89660954     0.76900
C252        C  0.49533826  0.18973699  0.89479582     0.76900
O253        O  0.22904969  0.50449854  0.85417886    -0.72200
O254        O  0.22878905  0.00561315  0.93350105    -0.72500
O255        O  0.23023507  0.04880701  0.89322768    -0.72300
O256        O  0.22702130  0.46162788  0.89428944    -0.72300
O257        O  0.27675596  0.45981019  0.89480635    -0.72300
O258        O  0.28001210  0.04726238  0.89350845    -0.72300
O259        O  0.27811204  0.50396268  0.93376368    -0.72200
O260        O  0.27883076  0.00263181  0.85455695    -0.72400
V261        V  0.22957509  0.50517709  0.89383480     1.35200
V262        V  0.27738671  0.50348987  0.89425860     1.35200
C263        C  0.25406224  0.50275025  0.84095330     0.77000
C264        C  0.25320435  0.50479987  0.94708496     0.77100
C265        C  0.25553902  0.06290738  0.89312149     0.76900
C266        C  0.25134631  0.44584259  0.89438581     0.76900
O267        O  0.22877392  0.25473736  0.85104224    -0.72200
O268        O  0.22771660  0.25243250  0.93029682    -0.72500
O269        O  0.22637337  0.29709443  0.89150597    -0.72300
O270        O  0.23020339  0.20980267  0.88986362    -0.72300
O271        O  0.27995322  0.21179616  0.89061943    -0.72300
O272        O  0.27610300  0.29899849  0.89219331    -0.72300
O273        O  0.27748605  0.25442025  0.93086845    -0.72200
O274        O  0.27845108  0.25690772  0.85166006    -0.72400
V275        V  0.22923461  0.25349486  0.89067979     1.35200
V276        V  0.27702436  0.25543464  0.89129448     1.35200
C277        C  0.25374709  0.25676884  0.83781274     0.77000
C278        C  0.25242040  0.25328213  0.94403687     0.77100
C279        C  0.25065005  0.31291000  0.89203813     0.76900
C280        C  0.25570495  0.19592983  0.89025744     0.76900
O281        O  0.49587627  0.46870021  0.70742787    -0.72200
O282        O  0.00290339  0.47140780  0.62833186    -0.72500
O283        O  0.04266193  0.46994631  0.67156174    -0.72300
O284        O  0.45617921  0.47011315  0.66443601    -0.72300
O285        O  0.45571992  0.01914147  0.66923572    -0.72300
O286        O  0.04295200  0.01999489  0.66890460    -0.72300
O287        O  0.49909482  0.02102436  0.62957555    -0.72200
O288        O  0.99941900  0.01843615  0.70871530    -0.72400
V289        V  0.49943652  0.47098012  0.66792938     1.35200
V290        V  0.49931684  0.01872924  0.66911479     1.35200
C291        C  0.49696020  0.49314845  0.72153626     0.77000
C292        C  0.50156865  0.49676852  0.61542993     0.77100
C293        C  0.05789970  0.49456087  0.67090208     0.76900
C294        C  0.44116659  0.49485721  0.66603810     0.76900
O295        O  0.49888959  0.23225193  0.70855419    -0.72200
O296        O  0.99989837  0.22972546  0.62956971    -0.72500
O297        O  0.04326951  0.23192267  0.66941495    -0.72300
O298        O  0.45576349  0.23061218  0.66849961    -0.72300
O299        O  0.45528333  0.28038983  0.66669213    -0.72300
O300        O  0.04222423  0.28175403  0.66805021    -0.72300
O301        O  0.49932532  0.27958006  0.62782667    -0.72200
O302        O  0.99794785  0.28208513  0.70734983    -0.72400
V303        V  0.49948468  0.23210230  0.66901164     1.35200
V304        V  0.49874068  0.27998079  0.66756632     1.35200
C305        C  0.49791856  0.25745205  0.72147304     0.77000
C306        C  0.49957775  0.25410183  0.61524598     0.77100
C307        C  0.05762240  0.25717174  0.66853367     0.76900
C308        C  0.44061989  0.25541195  0.66723313     0.76900
O309        O  0.25450457  0.47065563  0.70681774    -0.72200
O310        O  0.24654791  0.47134889  0.62765583    -0.72500
O311        O  0.29353353  0.47118404  0.66352587    -0.72300
O312        O  0.20726424  0.47039258  0.67123555    -0.72300
O313        O  0.20640153  0.02017524  0.66698957    -0.72300
O314        O  0.29375405  0.01992106  0.66802434    -0.72300
O315        O  0.25053949  0.02085366  0.62806500    -0.72200
O316        O  0.24964698  0.01990333  0.70698085    -0.72400
V317        V  0.25040248  0.47181604  0.66726751     1.35200
V318        V  0.25007808  0.01930550  0.66751533     1.35200
C319        C  0.25292589  0.49547528  0.72039025     0.77000
C320        C  0.24785384  0.49649210  0.61434911     0.77100
C321        C  0.30840585  0.49593788  0.66512103     0.76900
C322        C  0.19169488  0.49480250  0.67008309     0.76900
O323        O  0.24915179  0.23631092  0.70438002    -0.72200
O324        O  0.24829993  0.23252101  0.62541308    -0.72500
O325        O  0.29218344  0.23352220  0.66469078    -0.72300
O326        O  0.20504718  0.23537946  0.66529313    -0.72300
O327        O  0.20580722  0.28520318  0.66377130    -0.72300
O328        O  0.29309786  0.28324067  0.66181396    -0.72300
O329        O  0.24849794  0.28235151  0.62311328    -0.72200
O330        O  0.25081752  0.28607669  0.70248906    -0.72400
V331        V  0.24863020  0.23544033  0.66486305     1.35200
V332        V  0.24948781  0.28328524  0.66281776     1.35200
C333        C  0.25068749  0.26170991  0.71694769     0.77000
C334        C  0.24848275  0.25671545  0.61081396     0.77100
C335        C  0.30753969  0.25806831  0.66329158     0.76900
C336        C  0.19054898  0.26054500  0.66496642     0.76900
C337        C  0.39047743  0.23615514  0.64791627    -0.02300
C338        C  0.40655670  0.25554536  0.66641228     0.07400
C339        C  0.38994595  0.27593278  0.68359284    -0.02400
C340        C  0.35769090  0.27690312  0.68234569    -0.02400
C341        C  0.34158471  0.25738336  0.66401460     0.07500
C342        C  0.35814806  0.23693839  0.64684731    -0.02600
Br343      Br  0.33678651  0.21099808  0.62064585    -0.01200
Br344      Br  0.41260793  0.20986159  0.62255057    -0.01200
Br345      Br  0.33568290  0.30404948  0.70708707    -0.01200
Br346      Br  0.41110444  0.30177242  0.71004707    -0.01200
C347        C  0.10673841  0.27462070  0.64634040    -0.02300
C348        C  0.09162679  0.25818821  0.66773053     0.07400
C349        C  0.10911301  0.24349042  0.68863370    -0.02400
C350        C  0.14140222  0.24480963  0.68794298    -0.02400
C351        C  0.15654028  0.26082150  0.66633782     0.07500
C352        C  0.13903885  0.27624366  0.64583219    -0.02600
Br353      Br  0.15916428  0.29889817  0.61644056    -0.01200
Br354      Br  0.08329651  0.29349966  0.61665802    -0.01200
Br355      Br  0.16487819  0.22630765  0.71777060    -0.01200
Br356      Br  0.08886719  0.22277869  0.71909350    -0.01200
C357        C  0.39067358  0.47334161  0.68140722    -0.02300
C358        C  0.40723621  0.49462097  0.66506334     0.07400
C359        C  0.39120033  0.01503720  0.64880023    -0.02400
C360        C  0.35891051  0.01542277  0.64873742    -0.02400
C361        C  0.34237219  0.49542437  0.66477753     0.07500
C362        C  0.35842630  0.47367508  0.68120834    -0.02600
Br363      Br  0.33657564  0.44487493  0.70467011    -0.01200
Br364      Br  0.41187532  0.44435365  0.70527709    -0.01200
Br365      Br  0.33753229  0.04382569  0.62451057    -0.01200
Br366      Br  0.41323204  0.04249161  0.62426343    -0.01200
C367        C  0.10869768  0.51817850  0.68456631    -0.02300
C368        C  0.09214677  0.49398802  0.67189273     0.07400
C369        C  0.10856128  0.97104287  0.65769016    -0.02400
C370        C  0.14084465  0.97060762  0.65805887    -0.02400
C371        C  0.15749031  0.49392494  0.67168548     0.07500
C372        C  0.14105814  0.51822089  0.68432768    -0.02600
Br373      Br  0.16251461  0.55064368  0.70372435    -0.01200
Br374      Br  0.08754324  0.55058475  0.70427933    -0.01200
Br375      Br  0.16166728  0.93628327  0.64086968    -0.01200
Br376      Br  0.08728161  0.93903277  0.63759703    -0.01200
C377        C  0.23385482  0.27981413  0.79308310    -0.02300
C378        C  0.25396815  0.25923677  0.80688582     0.07400
C379        C  0.27436449  0.24122690  0.79095974    -0.02400
C380        C  0.27415765  0.24326777  0.76164628    -0.02400
C381        C  0.25278773  0.26240151  0.74783038     0.07500
C382        C  0.23298592  0.28109096  0.76368990    -0.02600
Br383      Br  0.20367983  0.30762286  0.74532617    -0.01200
Br384      Br  0.20836010  0.30751244  0.81428521    -0.01200
Br385      Br  0.30448969  0.22092408  0.74047300    -0.01200
Br386      Br  0.30166208  0.21231868  0.80893808    -0.01200
C387        C  0.26740325  0.39589415  0.87318943    -0.02300
C388        C  0.25017414  0.41185245  0.89339811     0.07400
C389        C  0.23166789  0.39520323  0.91227010    -0.02400
C390        C  0.23154020  0.36282571  0.91174649    -0.02400
C391        C  0.24956241  0.34690182  0.89208123     0.07500
C392        C  0.26702063  0.36359413  0.87248840    -0.02600
Br393      Br  0.28911296  0.34230894  0.84346810    -0.01200
Br394      Br  0.29009602  0.41819632  0.84512032    -0.01200
Br395      Br  0.20781558  0.34042295  0.93900913    -0.01200
Br396      Br  0.20723849  0.41653382  0.93963372    -0.01200
C397        C  0.24316907  0.14514018  0.86877486    -0.02300
C398        C  0.25695378  0.16191081  0.89051108     0.07400
C399        C  0.27085459  0.14605732  0.91295011    -0.02400
C400        C  0.27055850  0.11365983  0.91378427    -0.02400
C401        C  0.25633306  0.09692348  0.89221384     0.07500
C402        C  0.24247583  0.11280887  0.86980473    -0.02600
Br403      Br  0.22296536  0.09026905  0.84010665    -0.01200
Br404      Br  0.22667495  0.16647666  0.83675306    -0.01200
Br405      Br  0.28780529  0.09227609  0.94546349    -0.01200
Br406      Br  0.28905863  0.16868904  0.94327617    -0.01200
C407        C  0.27411500  0.51904051  0.79411961    -0.02300
C408        C  0.25444786  0.50027497  0.81013446     0.07400
C409        C  0.23523732  0.97846723  0.79670876    -0.02400
C410        C  0.23507498  0.97622390  0.76741003    -0.02400
C411        C  0.25450744  0.49588864  0.75125482     0.07500
C412        C  0.27417621  0.51680489  0.76483560    -0.02600
Br413      Br  0.30231937  0.54169864  0.74343181    -0.01200
Br414      Br  0.30032927  0.54880469  0.81201136    -0.01200
Br415      Br  0.20774936  0.94747156  0.74955228    -0.01200
Br416      Br  0.21031424  0.95061589  0.81841320    -0.01200
C417        C  0.51889471  0.27325651  0.76812214    -0.02300
C418        C  0.49656108  0.25762020  0.75239812     0.07400
C419        C  0.97355352  0.24078765  0.76630441    -0.02400
C420        C  0.97357241  0.23848153  0.79564392    -0.02400
C421        C  0.49673573  0.25306996  0.81150658     0.07500
C422        C  0.51906944  0.27098845  0.79748645    -0.02600
Br423      Br  0.54935024  0.29392123  0.81819437    -0.01200
Br424      Br  0.54996432  0.29715247  0.74938649    -0.01200
Br425      Br  0.94218623  0.21414095  0.81354730    -0.01200
Br426      Br  0.94102031  0.22183006  0.74508960    -0.01200
C427        C  0.01620061  0.35672496  0.91852213    -0.02300
C428        C  0.50202243  0.34063913  0.89653356     0.07400
C429        C  0.48775029  0.35702580  0.87470846    -0.02400
C430        C  0.48716676  0.38931059  0.87503719    -0.02400
C431        C  0.50051467  0.40547830  0.89738499     0.07500
C432        C  0.01525716  0.38910837  0.91904837    -0.02600
Br433      Br  0.03280175  0.41093474  0.95014297    -0.01200
Br434      Br  0.03579022  0.33439182  0.94849726    -0.01200
Br435      Br  0.46930139  0.41138356  0.84405262    -0.01200
Br436      Br  0.47001951  0.33517376  0.84365629    -0.01200
C437        C  0.01001942  0.13940174  0.87295806    -0.02300
C438        C  0.49381948  0.15561572  0.89373702     0.07400
C439        C  0.47652413  0.13903400  0.91359605    -0.02400
C440        C  0.47661361  0.10662279  0.91345587    -0.02400
C441        C  0.49326150  0.09046843  0.89297338     0.07500
C442        C  0.00961711  0.10701112  0.87250551    -0.02600
Br443      Br  0.03039778  0.08529529  0.84297759    -0.01200
Br444      Br  0.03141655  0.16153360  0.84399424    -0.01200
Br445      Br  0.45560177  0.08439915  0.94262749    -0.01200
Br446      Br  0.45355330  0.16051705  0.94183691    -0.01200
C447        C  0.47371855  0.51072797  0.79608116    -0.02300
C448        C  0.49586648  0.49395005  0.81149156     0.07400
C449        C  0.01702087  0.97483751  0.79717614    -0.02400
C450        C  0.01743662  0.97452222  0.76779128    -0.02400
C451        C  0.49586179  0.49238577  0.75239476     0.07500
C452        C  0.47362388  0.50970846  0.76672045    -0.02600
Br453      Br  0.44209526  0.53116883  0.74604647    -0.01200
Br454      Br  0.44423448  0.53668218  0.81471658    -0.01200
Br455      Br  0.04805782  0.95056257  0.74854590    -0.01200
Br456      Br  0.04443260  0.94793911  0.81747151    -0.01200
C457        C  0.23722060  0.39402361  0.04982726    -0.02300
C458        C  0.25285311  0.41037926  0.02877222     0.07400
C459        C  0.26734778  0.39425215  0.00701435    -0.02400
C460        C  0.26676021  0.36192234  0.00662047    -0.02400
C461        C  0.25137940  0.34552437  0.02781027     0.07500
C462        C  0.23627413  0.36170280  0.04923319    -0.02600
Br463      Br  0.21521237  0.33969179  0.07847752    -0.01200
Br464      Br  0.21828072  0.41582995  0.08031528    -0.01200
Br465      Br  0.28577867  0.34015916  0.97618868    -0.01200
Br466      Br  0.28661591  0.41645661  0.97686857    -0.01200
C467        C  0.27238721  0.14489005  0.04834021    -0.02300
C468        C  0.25363426  0.16043930  0.02881674     0.07400
C469        C  0.23531148  0.14332391  0.01024889    -0.02400
C470        C  0.23574919  0.11098664  0.01117687    -0.02400
C471        C  0.25472923  0.09539577  0.03052777     0.07500
C472        C  0.27317931  0.11252971  0.04899708    -0.02600
Br473      Br  0.29850436  0.09187570  0.07630207    -0.01200
Br474      Br  0.29551065  0.16779802  0.07564142    -0.01200
Br475      Br  0.21130586  0.08822133  0.98472722    -0.01200
Br476      Br  0.21053027  0.16399499  0.98248937    -0.01200
C477        C  0.01728078  0.39447024  0.05170404    -0.02300
C478        C  0.49802659  0.41043362  0.03287712     0.07400
C479        C  0.47968082  0.39375540  0.01400739    -0.02400
C480        C  0.48129058  0.36147856  0.01335286    -0.02400
C481        C  0.50072368  0.34543932  0.03197288     0.07500
C482        C  0.01860418  0.36210685  0.05128763    -0.02600
Br483      Br  0.04349674  0.34081561  0.07851670    -0.01200
Br484      Br  0.04019087  0.41679428  0.07959063    -0.01200
Br485      Br  0.45773167  0.33942303  0.98579586    -0.01200
Br486      Br  0.45280358  0.41493729  0.98825909    -0.01200
C487        C  0.47999060  0.14424485  0.05259495    -0.02300
C488        C  0.49789585  0.16041600  0.03294997     0.07400
C489        C  0.01441985  0.14410746  0.01254504    -0.02400
C490        C  0.01358045  0.11181372  0.01209889    -0.02400
C491        C  0.49605464  0.09554369  0.03196033     0.07500
C492        C  0.47904720  0.11190710  0.05208534    -0.02600
Br493      Br  0.45555865  0.09016269  0.07994149    -0.01200
Br494      Br  0.45775506  0.16623951  0.08109400    -0.01200
Br495      Br  0.03526365  0.09006060  0.98317232    -0.01200
Br496      Br  0.03676916  0.16603241  0.98399387    -0.01200
C497        C  0.35834825  0.23344009  0.50849794    -0.02300
C498        C  0.34145300  0.25043692  0.52821412     0.07400
C499        C  0.35721957  0.26720729  0.54887963    -0.02400
C500        C  0.38954253  0.26663922  0.55003374    -0.02400
C501        C  0.40642028  0.24923013  0.53057640     0.07500
C502        C  0.39066986  0.23284880  0.50966230    -0.02600
Br503      Br  0.41344708  0.21121816  0.48140630    -0.01200
Br504      Br  0.33726944  0.21249521  0.47876777    -0.01200
Br505      Br  0.41060810  0.28891094  0.57902143    -0.01200
Br506      Br  0.33454199  0.29005009  0.57644553    -0.01200
C507        C  0.10681759  0.26489879  0.50852473    -0.02300
C508        C  0.09150689  0.24957079  0.53045629     0.07400
C509        C  0.10879700  0.23527130  0.55174604    -0.02400
C510        C  0.14108447  0.23626369  0.55110290    -0.02400
C511        C  0.15638729  0.25101361  0.52888638     0.07500
C512        C  0.13912118  0.26561254  0.50773911    -0.02600
Br513      Br  0.15959285  0.28572348  0.47703379    -0.01200
Br514      Br  0.08362786  0.28372484  0.47864739    -0.01200
Br515      Br  0.16432538  0.21920817  0.58179113    -0.01200
Br516      Br  0.08836186  0.21547146  0.58260566    -0.01200
C517        C  0.35805695  0.01775688  0.51191684    -0.02300
C518        C  0.34167002  0.50138974  0.53305708     0.07400
C519        C  0.35786185  0.48563262  0.55424143    -0.02400
C520        C  0.39020594  0.48562807  0.55449774    -0.02400
C521        C  0.40665454  0.50173340  0.53378538     0.07500
C522        C  0.39037939  0.01790483  0.51229931    -0.02600
Br523      Br  0.41249434  0.03825487  0.48268586    -0.01200
Br524      Br  0.33640519  0.03822959  0.48200341    -0.01200
Br525      Br  0.41195260  0.46413062  0.58375375    -0.01200
Br526      Br  0.33576104  0.46515556  0.58375327    -0.01200
C527        C  0.10808704  0.51566328  0.50829723    -0.02300
C528        C  0.09167767  0.49768606  0.52778918     0.07400
C529        C  0.10791393  0.97480689  0.54312832    -0.02400
C530        C  0.14020818  0.97504968  0.54362276    -0.02400
C531        C  0.15667809  0.49706232  0.52769866     0.07500
C532        C  0.14045465  0.51472646  0.50781343    -0.02600
Br533      Br  0.16248777  0.53548225  0.47839434    -0.01200
Br534      Br  0.08636496  0.54009810  0.48102482    -0.01200
Br535      Br  0.16163502  0.94553619  0.56664674    -0.01200
Br536      Br  0.08658727  0.94306674  0.56349231    -0.01200
C537        C  0.35713900  0.27018291  0.38813657    -0.02300
C538        C  0.34045102  0.24270526  0.39319004     0.07400
C539        C  0.35708754  0.21541648  0.39949388    -0.02400
C540        C  0.38942176  0.21555825  0.40042540    -0.02400
C541        C  0.40615353  0.24291345  0.39474838     0.07500
C542        C  0.38949700  0.27016656  0.38849391    -0.02600
Br543      Br  0.40999006  0.30835878  0.37916253    -0.01200
Br544      Br  0.33673244  0.30894769  0.38022575    -0.01200
Br545      Br  0.40967735  0.17720026  0.41029452    -0.01200
Br546      Br  0.33659032  0.17686265  0.40803421    -0.01200
C547        C  0.10798598  0.22470964  0.41449597    -0.02300
C548        C  0.09104719  0.23991827  0.39355724     0.07400
C549        C  0.10630559  0.25405292  0.37106500    -0.02400
C550        C  0.13849855  0.25422519  0.37013279    -0.02400
C551        C  0.15554504  0.23955629  0.39135018     0.07500
C552        C  0.14019452  0.22437173  0.41333237    -0.02600
Br553      Br  0.16307022  0.20422104  0.44269473    -0.01200
Br554      Br  0.08715373  0.20527603  0.44538280    -0.01200
Br555      Br  0.15906780  0.27333341  0.33897153    -0.01200
Br556      Br  0.08306936  0.27131131  0.34046185    -0.01200
C557        C  0.38823318  0.01483326  0.37301897    -0.02300
C558        C  0.40450744  0.99860628  0.39379975     0.07400
C559        C  0.38843174  0.48093332  0.41370744    -0.02400
C560        C  0.35612533  0.48072644  0.41347392    -0.02400
C561        C  0.33975973  0.99889034  0.39385639    -0.00500
C562        C  0.35601312  0.01529197  0.37323628    -0.02600
Br563      Br  0.33424369  0.03756915  0.34443017    -0.01200
Br564      Br  0.41000780  0.03518183  0.34320017    -0.01200
Br565      Br  0.33429377  0.45749412  0.44148884    -0.01200
Br566      Br  0.41028256  0.45884366  0.44254756    -0.01200
C567        C  0.10583633  0.03454510  0.38884864    -0.02300
C568        C  0.08928062  0.00888494  0.39904879     0.07400
C569        C  0.10599641  0.48359036  0.41107269    -0.02400
C570        C  0.13823307  0.48238703  0.40925691    -0.02400
C571        C  0.15471832  0.00756801  0.39698614     0.07500
C572        C  0.13821948  0.03392686  0.38788482    -0.02600
Br573      Br  0.15907344  0.06958209  0.37302008    -0.01200
Br574      Br  0.08496201  0.07137127  0.37633823    -0.01200
Br575      Br  0.15883151  0.44673286  0.42467642    -0.01200
Br576      Br  0.08508390  0.45253849  0.43293109    -0.01200
C577        C  0.27509030  0.25791088  0.26438658    -0.02300
C578        C  0.25352726  0.24177348  0.24808354     0.07400
C579        C  0.23162023  0.22287256  0.26149584    -0.02400
C580        C  0.22984137  0.22205331  0.29083578    -0.02400
C581        C  0.25127878  0.23839339  0.30701459     0.07500
C582        C  0.27472171  0.25510187  0.29360532    -0.02600
Br583      Br  0.30775779  0.27251091  0.31513587    -0.01200
Br584      Br  0.30400999  0.28572555  0.24726463    -0.01200
Br585      Br  0.19706053  0.19968853  0.30866418    -0.01200
Br586      Br  0.20498352  0.19658406  0.23997820    -0.01200
C587        C  0.24438878  0.38910745  0.19016592    -0.02300
C588        C  0.25837979  0.40562943  0.16826922     0.07400
C589        C  0.27299624  0.38948771  0.14654918    -0.02400
C590        C  0.27221414  0.35711832  0.14599087    -0.02400
C591        C  0.25715607  0.34064855  0.16734202     0.07500
C592        C  0.24392048  0.35673213  0.18977164    -0.02600
Br593      Br  0.22695200  0.33429185  0.22088460    -0.01200
Br594      Br  0.22752182  0.41082066  0.22162288    -0.01200
Br595      Br  0.29093153  0.33541023  0.11537077    -0.01200
Br596      Br  0.29346208  0.41167103  0.11707492    -0.01200
C597        C  0.26830934  0.10786472  0.18563319    -0.02300
C598        C  0.25229200  0.09074949  0.16541892     0.07400
C599        C  0.23597596  0.10621990  0.14413127    -0.02400
C600        C  0.23548092  0.13860306  0.14322668    -0.02400
C601        C  0.25151268  0.15569462  0.16346420     0.07500
C602        C  0.26796568  0.14016976  0.18463630    -0.02600
Br603      Br  0.28922533  0.16309235  0.21313801    -0.01200
Br604      Br  0.28986047  0.08713958  0.21549358    -0.01200
Br605      Br  0.21435907  0.15944720  0.11325966    -0.01200
Br606      Br  0.21600205  0.08309698  0.11504552    -0.01200
C607        C  0.23219698  0.02056101  0.26462276    -0.02300
C608        C  0.25359148  0.00110754  0.25127860     0.07400
C609        C  0.27421429  0.48327217  0.26771104    -0.02400
C610        C  0.27302169  0.48481839  0.29703056    -0.02400
C611        C  0.25078199  0.00367052  0.31029485     0.07500
C612        C  0.23063904  0.02157697  0.29393743    -0.02600
Br613      Br  0.19977290  0.04659223  0.31147306    -0.01200
Br614      Br  0.20557062  0.04706317  0.24301406    -0.01200
Br615      Br  0.30300332  0.46251324  0.31887683    -0.01200
Br616      Br  0.30278123  0.45534966  0.25032924    -0.01200
C617        C  0.51676343  0.22103460  0.29577864    -0.02300
C618        C  0.49854438  0.24175540  0.31124815     0.07400
C619        C  0.98046341  0.26378031  0.29692876    -0.02400
C620        C  0.98087701  0.26532319  0.26767556    -0.02400
C621        C  0.49926324  0.24487803  0.25233802     0.07500
C622        C  0.51693896  0.22249908  0.26642255    -0.02600
Br623      Br  0.54044382  0.19282259  0.24552096    -0.01200
Br624      Br  0.54299983  0.19161126  0.31442223    -0.01200
Br625      Br  0.95697014  0.29652279  0.24872223    -0.01200
Br626      Br  0.95404978  0.29170137  0.31686618    -0.01200
C627        C  0.48139512  0.35786049  0.14906159    -0.02300
C628        C  0.99908607  0.34197488  0.16919050     0.07400
C629        C  0.01617692  0.35875993  0.18891686    -0.02400
C630        C  0.01537061  0.39110565  0.18870752    -0.02400
C631        C  0.99759920  0.40699610  0.16867695     0.07500
C632        C  0.48050810  0.39022952  0.14891356    -0.02600
Br633      Br  0.45693118  0.41149997  0.12069785    -0.01200
Br634      Br  0.45985645  0.33544183  0.12040624    -0.01200
Br635      Br  0.03732546  0.41355220  0.21706518    -0.01200
Br636      Br  0.03972871  0.33753095  0.21715878    -0.01200
C637        C  0.01578467  0.10789377  0.14786673    -0.02300
C638        C  0.99861463  0.09205239  0.16827221     0.07400
C639        C  0.48201615  0.10877277  0.18836499    -0.02400
C640        C  0.48271571  0.14109204  0.18815788    -0.02400
C641        C  0.00013310  0.15694373  0.16792626     0.07500
C642        C  0.01680700  0.14022297  0.14787571    -0.02600
Br643      Br  0.03995113  0.16152232  0.11951008    -0.01200
Br644      Br  0.03626067  0.08545402  0.11861928    -0.01200
Br645      Br  0.46093472  0.16351451  0.21664278    -0.01200
Br646      Br  0.45927540  0.08748871  0.21703660    -0.01200
C647        C  0.97873438  0.48122259  0.29714056    -0.02300
C648        C  0.49701557  0.00319915  0.31131385     0.07400
C649        C  0.51581068  0.02340901  0.29584153    -0.02400
C650        C  0.51662661  0.02172758  0.26652949    -0.02400
C651        C  0.49856332  0.99991453  0.25234885     0.07500
C652        C  0.97975563  0.47942457  0.26785372    -0.02600
Br653      Br  0.95692129  0.44768440  0.24894611    -0.01200
Br654      Br  0.95071156  0.45492353  0.31728547    -0.01200
Br655      Br  0.54200234  0.05014842  0.24587010    -0.01200
Br656      Br  0.54144225  0.05297391  0.31445425    -0.01200
O657        O  0.02304251  0.99859689  0.20780174    -0.72200
O658        O  0.02210891  0.50040869  0.12891865    -0.72500
O659        O  0.02276142  0.54301303  0.16893997    -0.72300
O660        O  0.02225864  0.95580770  0.16763589    -0.72300
O661        O  0.47249148  0.95610584  0.16844921    -0.72300
O662        O  0.47297278  0.54342150  0.16892929    -0.72300
O663        O  0.47226293  0.00042530  0.12908742    -0.72200
O664        O  0.47311587  0.49944442  0.20833699    -0.72400
V665        V  0.02153458  0.49944080  0.16845148     1.35200
V666        V  0.47368793  0.49975191  0.16877133     1.35200
C667        C  0.49812629  0.49909156  0.22166475     0.77000
C668        C  0.49711273  0.50100728  0.11566429     0.77100
C669        C  0.99797837  0.55807619  0.16882559     0.76900
C670        C  0.99732533  0.94106695  0.16806981     0.76900
O671        O  0.02466702  0.74819319  0.20831816    -0.72200
O672        O  0.02509731  0.75080694  0.12923675    -0.72500
O673        O  0.02446177  0.79324444  0.16952154    -0.72300
O674        O  0.02512258  0.70581506  0.16794844    -0.72300
O675        O  0.47533744  0.70574172  0.16718521    -0.72300
O676        O  0.47469068  0.79283715  0.16969244    -0.72300
O677        O  0.47526360  0.75101783  0.12901374    -0.72200
O678        O  0.47489775  0.74731221  0.20791083    -0.72400
V679        V  0.02389585  0.74952402  0.16875910     1.35200
V680        V  0.47604374  0.74925741  0.16846640     1.35200
C681        C  0.49968403  0.74685194  0.22155764     0.77000
C682        C  0.50023036  0.75159682  0.11573846     0.77100
C683        C  0.99940930  0.80793790  0.16955346     0.76900
C684        C  0.00024852  0.69091672  0.16754557     0.76900
O685        O  0.23000230  0.49770248  0.20661049    -0.72200
O686        O  0.23070406  0.99742165  0.12741202    -0.72500
O687        O  0.23187944  0.95375407  0.16743248    -0.72300
O688        O  0.22886723  0.54112155  0.16660192    -0.72300
O689        O  0.27862441  0.54267472  0.16687923    -0.72300
O690        O  0.28164100  0.95540852  0.16801149    -0.72300
O691        O  0.28036713  0.49892241  0.12778360    -0.72200
O692        O  0.27948813  0.99982871  0.20714231    -0.72400
V693        V  0.23129233  0.99747624  0.16695198     1.35200
V694        V  0.27909512  0.99907828  0.16744093     1.35200
C695        C  0.25440036  0.99935266  0.22035189     0.77000
C696        C  0.25562399  0.99869365  0.11413901     0.77100
C697        C  0.25728071  0.93970327  0.16790237     0.76900
C698        C  0.25327525  0.55676552  0.16640738     0.76900
O699        O  0.22880509  0.74723575  0.20379870    -0.72200
O700        O  0.22852312  0.75090747  0.12478468    -0.72500
O701        O  0.22744759  0.70529389  0.16293711    -0.72300
O702        O  0.23030849  0.79280947  0.16585154    -0.72300
O703        O  0.28007480  0.79092781  0.16603981    -0.72300
O704        O  0.27721110  0.70395129  0.16238749    -0.72300
O705        O  0.27833049  0.74973564  0.12461207    -0.72200
O706        O  0.27846477  0.74484589  0.20377642    -0.72400
V707        V  0.22972314  0.74904868  0.16430438     1.35200
V708        V  0.27753378  0.74743553  0.16418632     1.35200
C709        C  0.25358308  0.74491278  0.21730163     0.77000
C710        C  0.25332097  0.75105459  0.11126950     0.77100
C711        C  0.25199806  0.68974325  0.16264844     0.76900
C712        C  0.25576902  0.80672240  0.16640439     0.76900
O713        O  0.49621057  0.52831236  0.35588466    -0.72200
O714        O  0.99421814  0.52783036  0.43520751    -0.72500
O715        O  0.03871926  0.53067470  0.39717034    -0.72300
O716        O  0.45187719  0.52562464  0.39450874    -0.72300
O717        O  0.45458154  0.97617009  0.39520248    -0.72300
O718        O  0.04154186  0.98165461  0.39554067    -0.72300
O719        O  0.49795928  0.97847528  0.43483829    -0.72200
O720        O  0.99829757  0.97894767  0.35593676    -0.72400
V721        V  0.49531095  0.52717662  0.39561129     1.35200
V722        V  0.49803677  0.97979576  0.39538662     1.35200
C723        C  0.49726827  0.50340364  0.34238695     0.77000
C724        C  0.49610390  0.50276572  0.44844644     0.77100
C725        C  0.05519131  0.50678705  0.39727987     0.76900
C726        C  0.43848838  0.49991625  0.39455131     0.76900
O727        O  0.49922708  0.76616664  0.35549700    -0.72200
O728        O  0.00012958  0.76762785  0.43418715    -0.72500
O729        O  0.04306625  0.76584927  0.39426413    -0.72300
O730        O  0.45603939  0.76714684  0.39553159    -0.72300
O731        O  0.45549683  0.71776601  0.39482769    -0.72300
O732        O  0.04217647  0.71598383  0.39601377    -0.72300
O733        O  0.49833209  0.71779641  0.43543049    -0.72200
O734        O  0.99911324  0.71641614  0.35589756    -0.72400
V735        V  0.49959002  0.76571719  0.39487551     1.35200
V736        V  0.49881947  0.71790471  0.39560334     1.35200
C737        C  0.49904515  0.74127116  0.34214388     0.77000
C738        C  0.49914506  0.74316796  0.44825001     0.77100
C739        C  0.05735943  0.74058829  0.39481957     0.76900
C740        C  0.44062330  0.74259918  0.39508716     0.76900
O741        O  0.24807496  0.52816704  0.35487404    -0.72200
O742        O  0.25032877  0.52682945  0.43416689    -0.72500
O743        O  0.29238539  0.52536579  0.39360102    -0.72300
O744        O  0.20545858  0.52959954  0.39609591    -0.72300
O745        O  0.20295537  0.98071799  0.39310438    -0.72300
O746        O  0.28997606  0.97609631  0.39492960    -0.72300
O747        O  0.24584511  0.97772005  0.43358342    -0.72200
O748        O  0.24759459  0.97878009  0.35454956    -0.72400
V749        V  0.24894272  0.52656209  0.39459203     1.35200
V750        V  0.24653809  0.97930095  0.39406068     1.35200
C751        C  0.24854061  0.50338629  0.34116698     0.77000
C752        C  0.24875571  0.50171261  0.44727711     0.77100
C753        C  0.30606512  0.49976501  0.39405512     0.76900
C754        C  0.18921810  0.50560262  0.39528532     0.76900
O755        O  0.24908839  0.76470830  0.35060071    -0.72200
O756        O  0.24532417  0.76823440  0.42938884    -0.72500
O757        O  0.29046142  0.76686965  0.39212416    -0.72300
O758        O  0.20357022  0.76541836  0.38842632    -0.72300
O759        O  0.20459017  0.71575175  0.39269928    -0.72300
O760        O  0.29128098  0.71752068  0.39097947    -0.72300
O761        O  0.24890913  0.71853276  0.43160876    -0.72200
O762        O  0.24729311  0.71492684  0.35217652    -0.72400
V763        V  0.24705874  0.76535438  0.39007395     1.35200
V764        V  0.24794537  0.71758931  0.39184073     1.35200
C765        C  0.24888456  0.73935324  0.33789715     0.77000
C766        C  0.24733776  0.74414461  0.44394192     0.77100
C767        C  0.30600072  0.74238134  0.39210215     0.76900
C768        C  0.18929564  0.74029230  0.39072995     0.76900
O769        O  0.04338568  0.52405543  0.53090015    -0.72200
O770        O  0.45600241  0.52586851  0.53360953    -0.72500
O771        O  0.00108514  0.52341422  0.57204745    -0.72300
O772        O  0.49813119  0.52654842  0.49287260    -0.72300
O773        O  0.99590095  0.97698579  0.49167612    -0.72300
O774        O  0.50084889  0.97350141  0.57063555    -0.72300
O775        O  0.45484475  0.97620338  0.53321811    -0.72200
O776        O  0.04174334  0.97437963  0.52853164    -0.72400
V777        V  0.99965183  0.52403031  0.53239078     1.35200
V778        V  0.49835804  0.97625451  0.53109728     1.35200
C779        C  0.05738846  0.99875044  0.52952105     0.77000
C780        C  0.44047661  0.00143324  0.53338342     0.77100
C781        C  0.50092220  0.99784429  0.58489814     0.76900
C782        C  0.49670694  0.50206702  0.47889181     0.76900
O783        O  0.45525382  0.77349622  0.53038293    -0.72200
O784        O  0.04235602  0.77369501  0.52991484    -0.72500
O785        O  0.49861292  0.77059505  0.49076264    -0.72300
O786        O  0.99915979  0.77629338  0.56978889    -0.72300
O787        O  0.49908402  0.72648836  0.57260329    -0.72300
O788        O  0.99910965  0.72078854  0.49359357    -0.72300
O789        O  0.04277953  0.72395021  0.53311558    -0.72200
O790        O  0.45530000  0.72370531  0.53293201    -0.72400
V791        V  0.49883453  0.77252731  0.53027823     1.35200
V792        V  0.99904954  0.72469011  0.53306186     1.35200
C793        C  0.44038778  0.74863708  0.53147154     0.77000
C794        C  0.05743748  0.74893933  0.53123352     0.77100
C795        C  0.49893290  0.74478111  0.47876114     0.76900
C796        C  0.49926197  0.75225404  0.58463150     0.76900
O797        O  0.29213337  0.52516681  0.53229338    -0.72200
O798        O  0.20487904  0.52313355  0.53009765    -0.72500
O799        O  0.24754714  0.52269557  0.57088116    -0.72300
O800        O  0.24932988  0.52546451  0.49173639    -0.72300
O801        O  0.25092504  0.97609523  0.49058757    -0.72300
O802        O  0.24840501  0.97281785  0.56966247    -0.72300
O803        O  0.20633559  0.97354372  0.52844916    -0.72200
O804        O  0.29343046  0.97561583  0.53149811    -0.72400
V805        V  0.24851867  0.52314669  0.53127105     1.35200
V806        V  0.24980108  0.97549219  0.53010007     1.35200
C807        C  0.30763301  0.00091603  0.53191372     0.77000
C808        C  0.19071804  0.99800154  0.52931277     0.77100
C809        C  0.24825883  0.99720066  0.58381326     0.76900
C810        C  0.24972200  0.50089317  0.47777098     0.76900
O811        O  0.24831706  0.72245046  0.48951522    -0.72200
O812        O  0.24891068  0.72884408  0.56846332    -0.72500
O813        O  0.20510578  0.72598220  0.52929144    -0.72300
O814        O  0.29238265  0.72554264  0.52882649    -0.72300
O815        O  0.29247247  0.77530016  0.52574949    -0.72300
O816        O  0.20516730  0.77570849  0.52578597    -0.72300
O817        O  0.24881416  0.77862102  0.56525762    -0.72200
O818        O  0.24849722  0.77222213  0.48621308    -0.72400
V819        V  0.24870770  0.72668794  0.52894673     1.35200
V820        V  0.24878680  0.77449689  0.52576521     1.35200
C821        C  0.24805749  0.74627897  0.47444787     0.77000
C822        C  0.24868093  0.75471868  0.58029021     0.77100
C823        C  0.19027511  0.75091838  0.52779130     0.76900
C824        C  0.30732000  0.75038392  0.52747897     0.76900
O825        O  0.47190865  0.50295802  0.07183739    -0.72200
O826        O  0.47160465  0.00220897  0.99250298    -0.72500
O827        O  0.47212040  0.95915729  0.03273419    -0.72300
O828        O  0.47129875  0.54642011  0.03178525    -0.72300
O829        O  0.02107416  0.54680821  0.03240722    -0.72300
O830        O  0.02187232  0.95958199  0.03189290    -0.72300
O831        O  0.02154101  0.50336010  0.99261760    -0.72200
O832        O  0.02162919  0.00269917  0.07153728    -0.72400
V833        V  0.47265029  0.00280350  0.03210832     1.35200
V834        V  0.02050356  0.00315694  0.03202254     1.35200
C835        C  0.49674640  0.00237824  0.08501792     0.77000
C836        C  0.49646913  0.00225481  0.97905313     0.77100
C837        C  0.49715598  0.94448401  0.03247033     0.76900
C838        C  0.49605539  0.56149839  0.03211675     0.76900
O839        O  0.02388709  0.70866784  0.03325015    -0.72200
O840        O  0.02537016  0.79615991  0.03150587    -0.72500
O841        O  0.02504698  0.75301106  0.07183429    -0.72300
O842        O  0.02449288  0.75112311  0.99266552    -0.72300
O843        O  0.47470426  0.75260339  0.99289975    -0.72300
O844        O  0.47521493  0.75322609  0.07198849    -0.72300
O845        O  0.47562274  0.79669820  0.03233895    -0.72200
O846        O  0.47410475  0.70967437  0.03283905    -0.72400
V847        V  0.02376779  0.75234155  0.03229943     1.35200
V848        V  0.47591960  0.75314037  0.03249169     1.35200
C849        C  0.49867509  0.69433115  0.03319533     0.77000
C850        C  0.50059625  0.81135050  0.03193267     0.77100
C851        C  0.50019292  0.75280336  0.08531073     0.76900
C852        C  0.49946658  0.75085830  0.97934488     0.76900
O853        O  0.22980924  0.54657465  0.03214938    -0.72200
O854        O  0.22942827  0.95941753  0.02959701    -0.72500
O855        O  0.23011646  0.50131665  0.07052804    -0.72300
O856        O  0.22919074  0.00444502  0.99121999    -0.72300
O857        O  0.27848766  0.50357897  0.99082281    -0.72300
O858        O  0.28023295  0.00121460  0.06992875    -0.72300
O859        O  0.27923284  0.95884618  0.02932019    -0.72200
O860        O  0.27954741  0.54621225  0.03107291    -0.72400
V861        V  0.23035294  0.50300966  0.03096501     1.35200
V862        V  0.27862914  0.00255205  0.03030077     1.35200
C863        C  0.25473612  0.56130649  0.03151434     0.77000
C864        C  0.25415272  0.94429687  0.02914620     0.77100
C865        C  0.25552261  0.00037525  0.08358418     0.76900
C866        C  0.25395402  0.00441186  0.97754073     0.76900
O867        O  0.22834733  0.70915920  0.02805760    -0.72200
O868        O  0.22744764  0.79649289  0.02766605    -0.72500
O869        O  0.22776740  0.75275076  0.98809935    -0.72300
O870        O  0.22809892  0.75271218  0.06737976    -0.72300
O871        O  0.27791690  0.75281699  0.06722459    -0.72300
O872        O  0.27757559  0.75345766  0.98810992    -0.72300
O873        O  0.27724722  0.79684936  0.02774520    -0.72200
O874        O  0.27810247  0.70957729  0.02760617    -0.72400
V875        V  0.22887225  0.75281422  0.02776829     1.35200
V876        V  0.27672384  0.75319946  0.02766315     1.35200
C877        C  0.25337788  0.69447274  0.02809878     0.77000
C878        C  0.25221942  0.81153170  0.02772018     0.77100
C879        C  0.25269356  0.75309113  0.97464724     0.76900
C880        C  0.25311911  0.75237300  0.08074134     0.76900
O881        O  0.47157374  0.99482430  0.85613263    -0.72200
O882        O  0.47171994  0.49893300  0.93528214    -0.72500
O883        O  0.46980993  0.54054029  0.89390433    -0.72300
O884        O  0.47340924  0.95331269  0.89741224    -0.72300
O885        O  0.02317700  0.95517228  0.89733366    -0.72300
O886        O  0.01954425  0.54249997  0.89397397    -0.72300
O887        O  0.02141912  0.00070727  0.93510923    -0.72200
O888        O  0.02112601  0.49733780  0.85591825    -0.72400
V889        V  0.47263646  0.49689279  0.89575453     1.35200
V890        V  0.02041889  0.49889005  0.89557657     1.35200
C891        C  0.49621400  0.49534220  0.84250404     0.77000
C892        C  0.49665078  0.50064000  0.94865836     0.77100
C893        C  0.49408911  0.55640892  0.89353827     0.76900
C894        C  0.49888186  0.93939625  0.89768850     0.76900
O895        O  0.47261185  0.75122603  0.85645127    -0.72200
O896        O  0.47392797  0.74876365  0.93564553    -0.72500
O897        O  0.47535964  0.79304793  0.89701504    -0.72300
O898        O  0.47107473  0.70590610  0.89504530    -0.72300
O899        O  0.02077194  0.70340325  0.89505366    -0.72300
O900        O  0.02510116  0.79078568  0.89570581    -0.72300
O901        O  0.02370638  0.74708767  0.93503967    -0.72200
O902        O  0.02213671  0.74764914  0.85567185    -0.72400
V903        V  0.47422806  0.74954810  0.89604128     1.35200
V904        V  0.02198094  0.74716600  0.89538452     1.35200
C905        C  0.49714119  0.75040523  0.84245872     0.77000
C906        C  0.49905490  0.74868809  0.94879660     0.77100
C907        C  0.50086930  0.80672626  0.89657601     0.76900
C908        C  0.49518590  0.68973337  0.89466367     0.76900
O909        O  0.22911159  0.00450624  0.85421845    -0.72200
O910        O  0.22832151  0.50565977  0.93350951    -0.72500
O911        O  0.23002769  0.54881942  0.89319561    -0.72300
O912        O  0.22736983  0.96160057  0.89427559    -0.72300
O913        O  0.27710854  0.95985557  0.89463162    -0.72300
O914        O  0.27980005  0.54720575  0.89369933    -0.72300
O915        O  0.27858520  0.00402604  0.93359662    -0.72200
O916        O  0.27876623  0.50260987  0.85472753    -0.72400
V917        V  0.22984669  0.00515913  0.89384578     1.35200
V918        V  0.27766288  0.00353920  0.89408688     1.35200
C919        C  0.25404843  0.00273088  0.84089641     0.77000
C920        C  0.25367281  0.00481129  0.94699255     0.77100
C921        C  0.25535081  0.56288393  0.89319960     0.76900
C922        C  0.25171936  0.94584941  0.89427815     0.76900
O923        O  0.22904907  0.75479773  0.85109081    -0.72200
O924        O  0.22811894  0.75246932  0.93034968    -0.72500
O925        O  0.22684014  0.79714232  0.89156348    -0.72300
O926        O  0.23039909  0.70985320  0.88990827    -0.72300
O927        O  0.28015574  0.71168960  0.89061778    -0.72300
O928        O  0.27657592  0.79891926  0.89216007    -0.72300
O929        O  0.27789311  0.75433354  0.93086288    -0.72200
O930        O  0.27873490  0.75679365  0.85163868    -0.72400
V931        V  0.22957163  0.75354185  0.89072937     1.35200
V932        V  0.27736750  0.75534084  0.89128048     1.35200
C933        C  0.25400607  0.75675004  0.83782528     0.77000
C934        C  0.25284454  0.75324441  0.94406363     0.77100
C935        C  0.25115626  0.81289673  0.89204677     0.76900
C936        C  0.25585491  0.69590031  0.89028494     0.76900
O937        O  0.49659150  0.96868767  0.70757854    -0.72200
O938        O  0.00286990  0.97130429  0.62843062    -0.72500
O939        O  0.04307651  0.97036395  0.67131321    -0.72300
O940        O  0.45649433  0.96957768  0.66490323    -0.72300
O941        O  0.45585546  0.51969188  0.66879812    -0.72300
O942        O  0.04311374  0.51951349  0.66911309    -0.72300
O943        O  0.49962615  0.52116037  0.62948655    -0.72200
O944        O  0.99920363  0.51842071  0.70865367    -0.72400
V945        V  0.49978901  0.97091879  0.66805945     1.35200
V946        V  0.49946024  0.51878259  0.66902546     1.35200
C947        C  0.49747493  0.99317607  0.72164267     0.77000
C948        C  0.50116443  0.99663722  0.61552118     0.77100
C949        C  0.05799424  0.99518524  0.67048639     0.76900
C950        C  0.44124175  0.99417191  0.66656022     0.76900
O951        O  0.49868612  0.73240491  0.70853815    -0.72200
O952        O  0.99980629  0.72962544  0.62956018    -0.72500
O953        O  0.04311595  0.73197442  0.66944129    -0.72300
O954        O  0.45561515  0.73060356  0.66844386    -0.72300
O955        O  0.45510034  0.78038161  0.66659072    -0.72300
O956        O  0.04205217  0.78179934  0.66788054    -0.72300
O957        O  0.49912896  0.77947429  0.62769825    -0.72200
O958        O  0.99779366  0.78223587  0.70721274    -0.72400
V959        V  0.49933418  0.73212714  0.66899662     1.35200
V960        V  0.49856366  0.78000180  0.66743307     1.35200
C961        C  0.49773114  0.75764484  0.72139612     0.77000
C962        C  0.49945546  0.75395990  0.61517908     0.77100
C963        C  0.05745994  0.75722370  0.66845822     0.76900
C964        C  0.44045572  0.75539174  0.66716148     0.76900
O965        O  0.25376674  0.97024271  0.70685963    -0.72200
O966        O  0.24659617  0.97113374  0.62763893    -0.72500
O967        O  0.29326989  0.97034270  0.66391816    -0.72300
O968        O  0.20683279  0.97066214  0.67083276    -0.72300
O969        O  0.20611934  0.51985020  0.66735949    -0.72300
O970        O  0.29353256  0.52079078  0.66749010    -0.72300
O971        O  0.24979760  0.52111973  0.62797396    -0.72200
O972        O  0.24986037  0.52026846  0.70693620    -0.72400
V973        V  0.25006289  0.97150493  0.66728283     1.35200
V974        V  0.24982733  0.51960981  0.66743894     1.35200
C975        C  0.25239974  0.99507544  0.72042766     0.77000
C976        C  0.24833029  0.99628166  0.61438770     0.77100
C977        C  0.30839777  0.99494007  0.66565035     0.76900
C978        C  0.19163272  0.99531407  0.66946898     0.76900
O979        O  0.24904222  0.73635632  0.70440255    -0.72200
O980        O  0.24810750  0.73251013  0.62543740    -0.72500
O981        O  0.29202367  0.73351334  0.66467398    -0.72300
O982        O  0.20489374  0.73540514  0.66533441    -0.72300
O983        O  0.20566016  0.78522627  0.66373401    -0.72300
O984        O  0.29296290  0.78323699  0.66183413    -0.72300
O985        O  0.24838023  0.78233960  0.62311270    -0.72200
O986        O  0.25067563  0.78611980  0.70248371    -0.72400
V987        V  0.24847438  0.73545436  0.66488310     1.35200
V988        V  0.24934875  0.78329839  0.66281336     1.35200
C989        C  0.25060122  0.76176376  0.71695749     0.77000
C990        C  0.24832810  0.75669614  0.61082825     0.77100
C991        C  0.30738918  0.75805304  0.66328988     0.76900
C992        C  0.19039737  0.76056981  0.66494892     0.76900
C993        C  0.39030940  0.73620555  0.64779724    -0.02300
C994        C  0.40639456  0.75549811  0.66637301     0.07400
C995        C  0.38979138  0.77575943  0.68367940    -0.02400
C996        C  0.35753474  0.77670613  0.68247517    -0.02400
C997        C  0.34142819  0.75734429  0.66401164     0.07500
C998        C  0.35798083  0.73702224  0.64671950    -0.02600
Br999      Br  0.33659807  0.71131183  0.62034647    -0.01200
Br1000     Br  0.41243240  0.70997921  0.62237136    -0.01200
Br1001     Br  0.33551404  0.80356635  0.70746013    -0.01200
Br1002     Br  0.41097059  0.80144929  0.71023653    -0.01200
C1003       C  0.10659428  0.77451813  0.64618234    -0.02300
C1004       C  0.09146610  0.75823584  0.66765742     0.07400
C1005       C  0.10893868  0.74363929  0.68862707    -0.02400
C1006       C  0.14122869  0.74492266  0.68793230    -0.02400
C1007       C  0.15638464  0.76084112  0.66628156     0.07500
C1008       C  0.13889830  0.77613361  0.64568392    -0.02600
Br1009     Br  0.15905369  0.79855767  0.61616459    -0.01200
Br1010     Br  0.08316979  0.79316956  0.61637108    -0.01200
Br1011     Br  0.16468567  0.72644524  0.71778335    -0.01200
Br1012     Br  0.08867072  0.72310939  0.71917517    -0.01200
C1013       C  0.39077556  0.97188242  0.68139365    -0.02300
C1014       C  0.40728822  0.99369058  0.66556352     0.07400
C1015       C  0.39123378  0.51559230  0.64785243    -0.02400
C1016       C  0.35893096  0.51610891  0.64781518    -0.02400
C1017       C  0.34238404  0.99425332  0.66523166     0.07500
C1018       C  0.35850267  0.97209363  0.68116364    -0.02600
Br1019     Br  0.33672905  0.94257302  0.70393059    -0.01200
Br1020     Br  0.41205037  0.94234764  0.70465264    -0.01200
Br1021     Br  0.33756216  0.54391023  0.62303287    -0.01200
Br1022     Br  0.41342563  0.54221265  0.62270007    -0.01200
C1023       C  0.10874103  0.01831252  0.68479629    -0.02300
C1024       C  0.09218701  0.99496257  0.67094577     0.07400
C1025       C  0.10862225  0.46894227  0.66045972    -0.02400
C1026       C  0.14093325  0.46864477  0.66081338    -0.02400
C1027       C  0.15744571  0.99488905  0.67054439     0.07500
C1028       C  0.14110024  0.01852257  0.68425853    -0.02600
Br1029     Br  0.16269657  0.05029944  0.70434950    -0.01200
Br1030     Br  0.08751899  0.04906782  0.70647065    -0.01200
Br1031     Br  0.16174017  0.43286133  0.64610857    -0.01200
Br1032     Br  0.08761589  0.43478348  0.64314910    -0.01200
C1033       C  0.23414169  0.77996436  0.79315667    -0.02300
C1034       C  0.25417454  0.75925831  0.80689717     0.07400
C1035       C  0.27444869  0.74117931  0.79090887    -0.02400
C1036       C  0.27417106  0.74325418  0.76159631    -0.02400
C1037       C  0.25282543  0.76247160  0.74784003     0.07500
C1038       C  0.23319415  0.78127726  0.76376452    -0.02600
Br1039     Br  0.20404879  0.80806917  0.74550276    -0.01200
Br1040     Br  0.20887380  0.80778662  0.81444857    -0.01200
Br1041     Br  0.30442024  0.72088567  0.74034554    -0.01200
Br1042     Br  0.30167020  0.71213686  0.80880133    -0.01200
C1043       C  0.26775275  0.89589189  0.87304355    -0.02300
C1044       C  0.25059520  0.91185300  0.89330432     0.07400
C1045       C  0.23221612  0.89519804  0.91227083    -0.02400
C1046       C  0.23215256  0.86282160  0.91179660    -0.02400
C1047       C  0.25011971  0.84689282  0.89209366     0.07500
C1048       C  0.26746608  0.86358272  0.87241501    -0.02600
Br1049     Br  0.28952733  0.84227650  0.84338757    -0.01200
Br1050     Br  0.29014687  0.91819837  0.84477994    -0.01200
Br1051     Br  0.20858111  0.84042751  0.93917432    -0.01200
Br1052     Br  0.20783731  0.91652722  0.93967087    -0.01200
C1053       C  0.24307723  0.64513550  0.86887079    -0.02300
C1054       C  0.25698694  0.66187884  0.89055991     0.07400
C1055       C  0.27088572  0.64600016  0.91298498    -0.02400
C1056       C  0.27049289  0.61360609  0.91384024    -0.02400
C1057       C  0.25619687  0.59689660  0.89229117     0.07500
C1058       C  0.24232390  0.61280637  0.86990328    -0.02600
Br1059     Br  0.22272856  0.59030513  0.84022414    -0.01200
Br1060     Br  0.22646153  0.66650144  0.83691612    -0.01200
Br1061     Br  0.28768754  0.59219885  0.94553198    -0.01200
Br1062     Br  0.28920294  0.66859586  0.94327682    -0.01200
C1063       C  0.27395841  0.01874857  0.79397423    -0.02300
C1064       C  0.25425344  0.00015450  0.81010185     0.07400
C1065       C  0.23561689  0.47853962  0.79660151    -0.02400
C1066       C  0.23555876  0.47643389  0.76729068    -0.02400
C1067       C  0.25406404  0.99552498  0.75126849     0.07500
C1068       C  0.27392363  0.01636400  0.76471522    -0.02600
Br1069     Br  0.30225409  0.04090277  0.74316723    -0.01200
Br1070     Br  0.30033424  0.04852076  0.81166072    -0.01200
Br1071     Br  0.20834850  0.44770332  0.74925873    -0.01200
Br1072     Br  0.21083629  0.45041389  0.81814102    -0.01200
C1073       C  0.51869546  0.77351334  0.76804251    -0.02300
C1074       C  0.49634831  0.75789066  0.75232145     0.07400
C1075       C  0.97332858  0.74108514  0.76623432    -0.02400
C1076       C  0.97340135  0.73870715  0.79556760    -0.02400
C1077       C  0.49661725  0.75321827  0.81142432     0.07500
C1078       C  0.51893129  0.77116470  0.79740510    -0.02600
Br1079     Br  0.54927576  0.79400735  0.81811517    -0.01200
Br1080     Br  0.54965841  0.79754740  0.74930634    -0.01200
Br1081     Br  0.94202074  0.71435499  0.81346575    -0.01200
Br1082     Br  0.94068217  0.72229800  0.74503891    -0.01200
C1083       C  0.01621258  0.85671675  0.91841536    -0.02300
C1084       C  0.50192904  0.84061177  0.89649693     0.07400
C1085       C  0.48737070  0.85696887  0.87481111    -0.02400
C1086       C  0.48656875  0.88924448  0.87522420    -0.02400
C1087       C  0.50015523  0.90544015  0.89744146     0.07500
C1088       C  0.01514861  0.88909328  0.91898393    -0.02600
Br1089     Br  0.03275869  0.91092515  0.95004845    -0.01200
Br1090     Br  0.03610579  0.83441775  0.94824727    -0.01200
Br1091     Br  0.46793452  0.91124079  0.84456780    -0.01200
Br1092     Br  0.46958723  0.83509054  0.84379366    -0.01200
C1093       C  0.00977863  0.63934453  0.87287306    -0.02300
C1094       C  0.49360696  0.65561592  0.89363211     0.07400
C1095       C  0.47624953  0.63909383  0.91349119    -0.02400
C1096       C  0.47633422  0.60668258  0.91342848    -0.02400
C1097       C  0.49295144  0.59047565  0.89296643     0.07500
C1098       C  0.00927393  0.60695733  0.87243715    -0.02600
Br1099     Br  0.02983950  0.58514923  0.84283905    -0.01200
Br1100     Br  0.03130670  0.66138625  0.84393510    -0.01200
Br1101     Br  0.45538106  0.58453358  0.94267771    -0.01200
Br1102     Br  0.45318044  0.66065640  0.94161587    -0.01200
C1103       C  0.47477949  0.01166550  0.79611065    -0.02300
C1104       C  0.49605883  0.99387358  0.81153466     0.07400
C1105       C  0.01757672  0.47582204  0.79702758    -0.02400
C1106       C  0.01760460  0.47517202  0.76763270    -0.02400
C1107       C  0.49633995  0.99248806  0.75249289     0.07500
C1108       C  0.47461719  0.01053138  0.76677214    -0.02600
Br1109     Br  0.44357739  0.03275173  0.74614716    -0.01200
Br1110     Br  0.44673916  0.03915654  0.81476528    -0.01200
Br1111     Br  0.04839557  0.45160308  0.74820389    -0.01200
Br1112     Br  0.04679220  0.45071812  0.81714098    -0.01200
C1113       C  0.23792780  0.89403948  0.04971250    -0.02300
C1114       C  0.25356683  0.91036899  0.02864826     0.07400
C1115       C  0.26806518  0.89421325  0.00690624    -0.02400
C1116       C  0.26746886  0.86187737  0.00654523    -0.02400
C1117       C  0.25205766  0.84551252  0.02774037     0.07500
C1118       C  0.23694380  0.86172444  0.04913467    -0.02600
Br1119     Br  0.21577003  0.83976949  0.07834529    -0.01200
Br1120     Br  0.21900785  0.91588171  0.08018917    -0.01200
Br1121     Br  0.28648105  0.84005969  0.97614047    -0.01200
Br1122     Br  0.28731953  0.91637893  0.97673121    -0.01200
C1123       C  0.27252159  0.64481041  0.04844159    -0.02300
C1124       C  0.25376410  0.66042777  0.02896394     0.07400
C1125       C  0.23529709  0.64337932  0.01046207    -0.02400
C1126       C  0.23564131  0.61104476  0.01137030    -0.02400
C1127       C  0.25463082  0.59538629  0.03066319     0.07500
C1128       C  0.27319371  0.61244684  0.04909580    -0.02600
Br1129     Br  0.29850949  0.59168936  0.07634624    -0.01200
Br1130     Br  0.29579728  0.66762735  0.07569976    -0.01200
Br1131     Br  0.21106507  0.58837003  0.98495827    -0.01200
Br1132     Br  0.21040695  0.66412888  0.98283132    -0.01200
C1133       C  0.01678330  0.89450525  0.05167907    -0.02300
C1134       C  0.49766411  0.91045562  0.03273255     0.07400
C1135       C  0.47941399  0.89376350  0.01379554    -0.02400
C1136       C  0.48104708  0.86148176  0.01315525    -0.02400
C1137       C  0.50039078  0.84545787  0.03186604     0.07500
C1138       C  0.01811122  0.86214279  0.05129002    -0.02600
Br1139     Br  0.04275613  0.84087513  0.07871444    -0.01200
Br1140     Br  0.03948418  0.91686309  0.07968428    -0.01200
Br1141     Br  0.45764022  0.83939392  0.98551492    -0.01200
Br1142     Br  0.45262971  0.91493310  0.98796083    -0.01200
C1143       C  0.47986241  0.64426109  0.05264579    -0.02300
C1144       C  0.49783280  0.66040409  0.03302614     0.07400
C1145       C  0.01439688  0.64405892  0.01267286    -0.02400
C1146       C  0.01356529  0.61176497  0.01227345    -0.02400
C1147       C  0.49596634  0.59552228  0.03209972     0.07500
C1148       C  0.47886727  0.61192033  0.05214086    -0.02600
Br1149     Br  0.45512462  0.59023171  0.07985398    -0.01200
Br1150     Br  0.45761439  0.66629919  0.08111205    -0.01200
Br1151     Br  0.03534241  0.58996482  0.98343242    -0.01200
Br1152     Br  0.03676958  0.66592683  0.98410484    -0.01200
C1153       C  0.35821901  0.73301666  0.50869195    -0.02300
C1154       C  0.34137632  0.75027410  0.52826316     0.07400
C1155       C  0.35719801  0.76720275  0.54878803    -0.02400
C1156       C  0.38951673  0.76650647  0.54996860    -0.02400
C1157       C  0.40634106  0.74887128  0.53063865     0.07500
C1158       C  0.39053751  0.73231538  0.50987110    -0.02600
Br1159     Br  0.41323162  0.71024415  0.48183727    -0.01200
Br1160     Br  0.33708752  0.71189320  0.47909023    -0.01200
Br1161     Br  0.41064481  0.78887187  0.57886342    -0.01200
Br1162     Br  0.33461014  0.79048896  0.57611035    -0.01200
C1163       C  0.10671995  0.76490591  0.50849622    -0.02300
C1164       C  0.09142591  0.74939959  0.53033759     0.07400
C1165       C  0.10873348  0.73497622  0.55154547    -0.02400
C1166       C  0.14101547  0.73602810  0.55091938    -0.02400
C1167       C  0.15630657  0.75097649  0.52880616     0.07500
C1168       C  0.13902534  0.76570237  0.50773773    -0.02600
Br1169     Br  0.15946897  0.78610294  0.47717320    -0.01200
Br1170     Br  0.08351016  0.78384121  0.47868488    -0.01200
Br1171     Br  0.16426332  0.71876727  0.58151136    -0.01200
Br1172     Br  0.08833489  0.71491504  0.58228574    -0.01200
C1173       C  0.35812613  0.51751791  0.51236148    -0.02300
C1174       C  0.34160545  0.00171981  0.53266897     0.07400
C1175       C  0.35773937  0.98610496  0.55396392    -0.02400
C1176       C  0.39005254  0.98604212  0.55422475    -0.02400
C1177       C  0.40650534  0.00201005  0.53344223     0.07500
C1178       C  0.39046407  0.51765041  0.51269534    -0.02600
Br1179     Br  0.41252871  0.53789014  0.48299598    -0.01200
Br1180     Br  0.33643911  0.53808668  0.48253070    -0.01200
Br1181     Br  0.41174059  0.96474268  0.58364185    -0.01200
Br1182     Br  0.33561192  0.96600493  0.58367987    -0.01200
C1183       C  0.10800469  0.01915324  0.51196228    -0.02300
C1184       C  0.09152191  0.99765249  0.52824282     0.07400
C1185       C  0.10800049  0.47819354  0.54612921    -0.02400
C1186       C  0.14026683  0.47850311  0.54658821    -0.02400
C1187       C  0.15664987  0.99717071  0.52813855     0.07500
C1188       C  0.14034756  0.01838836  0.51138792    -0.02600
Br1189     Br  0.16212537  0.04463490  0.48558569    -0.01200
Br1190     Br  0.08656222  0.04854743  0.48878123    -0.01200
Br1191     Br  0.16189199  0.45447271  0.57415155    -0.01200
Br1192     Br  0.08632770  0.45126098  0.57119536    -0.01200
C1193       C  0.35715471  0.77015427  0.38861502    -0.02300
C1194       C  0.34043021  0.74264329  0.39341097     0.07400
C1195       C  0.35704335  0.71527573  0.39950923    -0.02400
C1196       C  0.38938197  0.71536897  0.40041292    -0.02400
C1197       C  0.40614053  0.74271404  0.39478336     0.07500
C1198       C  0.38951099  0.77003911  0.38873879    -0.02600
Br1199     Br  0.41002842  0.80819660  0.37932669    -0.01200
Br1200     Br  0.33682032  0.80915368  0.38156659    -0.01200
Br1201     Br  0.40961888  0.67697536  0.41019301    -0.01200
Br1202     Br  0.33652260  0.67668097  0.40784329    -0.01200
C1203       C  0.10797401  0.72464953  0.41451854    -0.02300
C1204       C  0.09102911  0.73982726  0.39356716     0.07400
C1205       C  0.10628540  0.75405165  0.37111861    -0.02400
C1206       C  0.13847759  0.75432563  0.37023572    -0.02400
C1207       C  0.15552451  0.73962609  0.39143171     0.07500
C1208       C  0.14018254  0.72436298  0.41337333    -0.02600
Br1209     Br  0.16307124  0.70416445  0.44269958    -0.01200
Br1210     Br  0.08714982  0.70522838  0.44541598    -0.01200
Br1211     Br  0.15905287  0.77363323  0.33917875    -0.01200
Br1212     Br  0.08305916  0.77130953  0.34050959    -0.01200
C1213       C  0.38841259  0.51494032  0.37316266    -0.02300
C1214       C  0.40465654  0.49831208  0.39370719     0.07400
C1215       C  0.38830791  0.98172576  0.41416402    -0.02400
C1216       C  0.35599254  0.98162905  0.41404355    -0.02400
C1217       C  0.33991182  0.49835876  0.39353965    -0.00500
C1218       C  0.35618947  0.51521020  0.37323052    -0.02600
Br1219     Br  0.33446924  0.53776928  0.34456965    -0.01200
Br1220     Br  0.41023070  0.53618393  0.34387742    -0.01200
Br1221     Br  0.33416890  0.95911734  0.44253888    -0.01200
Br1222     Br  0.41023391  0.96013996  0.44326506    -0.01200
C1223       C  0.10601687  0.53398669  0.38894576    -0.02300
C1224       C  0.08944238  0.50835391  0.39917898     0.07400
C1225       C  0.10584196  0.98410023  0.41088196    -0.02400
C1226       C  0.13806685  0.98287150  0.40899427    -0.02400
C1227       C  0.15489018  0.50705758  0.39721811     0.07500
C1228       C  0.13840003  0.53338710  0.38805259    -0.02600
Br1229     Br  0.15927875  0.56902902  0.37319274    -0.01200
Br1230     Br  0.08516976  0.57072862  0.37621079    -0.01200
Br1231     Br  0.15863232  0.94711660  0.42425895    -0.01200
Br1232     Br  0.08495590  0.95308688  0.43281308    -0.01200
C1233       C  0.27474684  0.75846230  0.26445085    -0.02300
C1234       C  0.25329740  0.74215566  0.24816236     0.07400
C1235       C  0.23141771  0.72323482  0.26158928    -0.02400
C1236       C  0.22973155  0.72233673  0.29093088    -0.02400
C1237       C  0.25114404  0.73872915  0.30709295     0.07500
C1238       C  0.27440845  0.75568502  0.29367335    -0.02600
Br1239     Br  0.30719626  0.77360192  0.31520239    -0.01200
Br1240     Br  0.30341065  0.78651093  0.24728462    -0.01200
Br1241     Br  0.19707496  0.69982005  0.30879998    -0.01200
Br1242     Br  0.20459156  0.69711948  0.24008990    -0.01200
C1243       C  0.24411844  0.88914962  0.19000754    -0.02300
C1244       C  0.25833480  0.90566967  0.16823266     0.07400
C1245       C  0.27316879  0.88953793  0.14662954    -0.02400
C1246       C  0.27243872  0.85717046  0.14608317    -0.02400
C1247       C  0.25718401  0.84069902  0.16731612     0.07500
C1248       C  0.24367645  0.85677819  0.18961532    -0.02600
Br1249     Br  0.22633705  0.83434520  0.22056392    -0.01200
Br1250     Br  0.22687811  0.91085931  0.22130218    -0.01200
Br1251     Br  0.29148052  0.83547333  0.11562161    -0.01200
Br1252     Br  0.29382363  0.91173214  0.11726922    -0.01200
C1253       C  0.26837696  0.60787064  0.18581706    -0.02300
C1254       C  0.25234172  0.59076293  0.16560454     0.07400
C1255       C  0.23602305  0.60625622  0.14433183    -0.02400
C1256       C  0.23556341  0.63864215  0.14342363    -0.02400
C1257       C  0.25162232  0.65572718  0.16364953     0.07500
C1258       C  0.26805894  0.64018317  0.18482321    -0.02600
Br1259     Br  0.28931737  0.66309193  0.21333559    -0.01200
Br1260     Br  0.28991518  0.58712402  0.21567105    -0.01200
Br1261     Br  0.21445203  0.65950058  0.11345788    -0.01200
Br1262     Br  0.21598691  0.58315840  0.11526769    -0.01200
C1263       C  0.23252475  0.52055248  0.26466373    -0.02300
C1264       C  0.25387465  0.50105059  0.25132831     0.07400
C1265       C  0.27399106  0.98340513  0.26767350    -0.02400
C1266       C  0.27287707  0.98503370  0.29699783    -0.02400
C1267       C  0.25084681  0.50336903  0.31031212     0.07500
C1268       C  0.23081137  0.52140125  0.29396615    -0.02600
Br1269     Br  0.19990074  0.54637816  0.31148280    -0.01200
Br1270     Br  0.20624584  0.54740692  0.24305888    -0.01200
Br1271     Br  0.30281486  0.96264724  0.31882457    -0.01200
Br1272     Br  0.30251043  0.95542668  0.25029731    -0.01200
C1273       C  0.51697389  0.72112196  0.29571865    -0.02300
C1274       C  0.49861562  0.74170467  0.31120128     0.07400
C1275       C  0.98043846  0.76366257  0.29690129    -0.02400
C1276       C  0.98085336  0.76524432  0.26764953    -0.02400
C1277       C  0.49932744  0.74489458  0.25229099     0.07500
C1278       C  0.51714330  0.72261247  0.26636265    -0.02600
Br1279     Br  0.54084931  0.69310181  0.24545360    -0.01200
Br1280     Br  0.54341787  0.69187871  0.31435394    -0.01200
Br1281     Br  0.95683719  0.79638631  0.24873285    -0.01200
Br1282     Br  0.95390118  0.79144139  0.31686835    -0.01200
C1283       C  0.48111614  0.85786141  0.14903702    -0.02300
C1284       C  0.99890605  0.84199602  0.16911435     0.07400
C1285       C  0.01604648  0.85881007  0.18878661    -0.02400
C1286       C  0.01519616  0.89115279  0.18857615    -0.02400
C1287       C  0.99743433  0.90702105  0.16853069     0.07500
C1288       C  0.48028883  0.89023543  0.14881813    -0.02600
Br1289     Br  0.45672257  0.91148143  0.12057912    -0.01200
Br1290     Br  0.45930085  0.83540787  0.12057563    -0.01200
Br1291     Br  0.03703475  0.91364196  0.21698141    -0.01200
Br1292     Br  0.03973271  0.83763565  0.21696437    -0.01200
C1293       C  0.01538761  0.60782676  0.14783880    -0.02300
C1294       C  0.99835073  0.59204533  0.16837367     0.07400
C1295       C  0.48192517  0.60882832  0.18854154    -0.02400
C1296       C  0.48274911  0.64114926  0.18832772    -0.02400
C1297       C  0.00003640  0.65693945  0.16796098     0.07500
C1298       C  0.01648732  0.64015496  0.14780576    -0.02600
Br1299     Br  0.03944267  0.66136688  0.11926489    -0.01200
Br1300     Br  0.03554998  0.58529072  0.11847454    -0.01200
Br1301     Br  0.46135957  0.66366691  0.21699413    -0.01200
Br1302     Br  0.45920990  0.58762874  0.21727620    -0.01200
C1303       C  0.97881521  0.98145606  0.29700572    -0.02300
C1304       C  0.49699473  0.50291825  0.31143417     0.07400
C1305       C  0.51565536  0.52324936  0.29597271    -0.02400
C1306       C  0.51634690  0.52168348  0.26666766    -0.02400
C1307       C  0.49833026  0.49983259  0.25249486     0.07500
C1308       C  0.97991956  0.97958207  0.26772008    -0.02600
Br1309     Br  0.95711072  0.94781710  0.24881855    -0.01200
Br1310     Br  0.95079932  0.95512870  0.31711955    -0.01200
Br1311     Br  0.54145274  0.55034826  0.24601420    -0.01200
Br1312     Br  0.54124047  0.55285967  0.31458227    -0.01200
O1313       O  0.52287802  0.49862855  0.20801232    -0.72200
O1314       O  0.52208738  0.00037729  0.12869378    -0.72500
O1315       O  0.52294958  0.04297108  0.16871980    -0.72300
O1316       O  0.52231020  0.45584656  0.16787302    -0.72300
O1317       O  0.97254140  0.45602215  0.16858653    -0.72300
O1318       O  0.97316316  0.04348960  0.16876761    -0.72300
O1319       O  0.97228406  0.50035515  0.12922861    -0.72200
O1320       O  0.97328607  0.99955281  0.20820479    -0.72400
V1321       V  0.52160595  0.99940304  0.16822634     1.35200
V1322       V  0.97376159  0.99983183  0.16862958     1.35200
C1323       C  0.99832085  0.99915071  0.22150098     0.77000
C1324       C  0.99706577  0.00102929  0.11548459     0.77100
C1325       C  0.49819968  0.05808728  0.16864540     0.76900
C1326       C  0.49741485  0.44104328  0.16825999     0.76900
O1327       O  0.52468762  0.24816280  0.20841072    -0.72200
O1328       O  0.52525958  0.25077966  0.12932471    -0.72500
O1329       O  0.52459048  0.29321208  0.16961652    -0.72300
O1330       O  0.52520046  0.20580612  0.16803699    -0.72300
O1331       O  0.97541931  0.20574678  0.16719138    -0.72300
O1332       O  0.97481899  0.29284462  0.16971384    -0.72300
O1333       O  0.97542746  0.25102154  0.12904355    -0.72200
O1334       O  0.97491842  0.24731500  0.20792752    -0.72400
V1335       V  0.52399258  0.24950096  0.16884952     1.35200
V1336       V  0.97614167  0.24926236  0.16848801     1.35200
C1337       C  0.99967916  0.24683696  0.22160923     0.77000
C1338       C  0.00041200  0.25157312  0.11579796     0.77100
C1339       C  0.49955081  0.30792216  0.16961660     0.76900
C1340       C  0.50032657  0.19091632  0.16757420     0.76900
O1341       O  0.72982359  0.99773149  0.20647010    -0.72200
O1342       O  0.73057809  0.49741885  0.12757920    -0.72500
O1343       O  0.73192227  0.45372813  0.16757801    -0.72300
O1344       O  0.72882304  0.04112526  0.16642278    -0.72300
O1345       O  0.77858042  0.04268298  0.16678967    -0.72300
O1346       O  0.78168554  0.45538103  0.16796036    -0.72300
O1347       O  0.78049489  0.99887788  0.12776869    -0.72200
O1348       O  0.77967531  0.49974097  0.20715498    -0.72400
V1349       V  0.73133238  0.49746051  0.16710540     1.35200
V1350       V  0.77913734  0.49905903  0.16745795     1.35200
C1351       C  0.75462606  0.49928945  0.22042007     0.77000
C1352       C  0.75549526  0.49872203  0.11423341     0.77100
C1353       C  0.75732569  0.43967252  0.16794377     0.76900
C1354       C  0.75322971  0.05676558  0.16625099     0.76900
O1355       O  0.72886889  0.24706453  0.20381722    -0.72200
O1356       O  0.72825901  0.25094214  0.12480535    -0.72500
O1357       O  0.72732608  0.20524874  0.16286525    -0.72300
O1358       O  0.73023512  0.29276451  0.16595847    -0.72300
O1359       O  0.78000061  0.29085828  0.16595448    -0.72300
O1360       O  0.77708871  0.20390007  0.16216648    -0.72300
O1361       O  0.77806529  0.24973759  0.12447950    -0.72200
O1362       O  0.77852721  0.24468151  0.20362239    -0.72400
V1363       V  0.72962218  0.24899781  0.16432144     1.35200
V1364       V  0.77743176  0.24736985  0.16404235     1.35200
C1365       C  0.75370177  0.24468060  0.21723089     0.77000
C1366       C  0.75300749  0.25106589  0.11121596     0.77100
C1367       C  0.75187481  0.18969987  0.16247753     0.76900
C1368       C  0.75570667  0.30666660  0.16642693     0.76900
O1369       O  0.99610341  0.02868568  0.35578571    -0.72200
O1370       O  0.49405833  0.02821973  0.43519253    -0.72500
O1371       O  0.53853816  0.03114542  0.39712423    -0.72300
O1372       O  0.95170475  0.02595710  0.39441269    -0.72300
O1373       O  0.95469711  0.47583554  0.39513705    -0.72300
O1374       O  0.54165700  0.48117698  0.39568923    -0.72300
O1375       O  0.99794914  0.47806743  0.43487073    -0.72200
O1376       O  0.49848316  0.47857406  0.35599006    -0.72400
V1377       V  0.99514517  0.02757071  0.39554985     1.35200
V1378       V  0.99814360  0.47939429  0.39543231     1.35200
C1379       C  0.99716681  0.00375895  0.34229762     0.77000
C1380       C  0.99608058  0.00315649  0.44844176     0.77100
C1381       C  0.55503921  0.00728303  0.39716769     0.76900
C1382       C  0.93834380  0.00023238  0.39456400     0.76900
O1383       O  0.99928031  0.26630416  0.35550531    -0.72200
O1384       O  0.50014242  0.26791845  0.43420360    -0.72500
O1385       O  0.54310975  0.26601930  0.39429470    -0.72300
O1386       O  0.95605603  0.26738984  0.39550427    -0.72300
O1387       O  0.95551020  0.21800685  0.39496924    -0.72300
O1388       O  0.54216860  0.21615493  0.39603546    -0.72300
O1389       O  0.99840741  0.21808719  0.43551010    -0.72200
O1390       O  0.49903393  0.21655637  0.35598658    -0.72400
V1391       V  0.99962171  0.26593087  0.39488574     1.35200
V1392       V  0.99882039  0.21812006  0.39568636     1.35200
C1393       C  0.99901338  0.24138348  0.34219145     0.77000
C1394       C  0.99920667  0.24347850  0.44829793     0.77100
C1395       C  0.55737751  0.24073962  0.39483720     0.76900
C1396       C  0.94063756  0.24283762  0.39512649     0.76900
O1397       O  0.74807697  0.02860139  0.35484189    -0.72200
O1398       O  0.74994915  0.02742741  0.43419389    -0.72500
O1399       O  0.79222642  0.02589439  0.39378081    -0.72300
O1400       O  0.70527964  0.03013115  0.39591024    -0.72300
O1401       O  0.70310398  0.48019084  0.39321918    -0.72300
O1402       O  0.79012389  0.47557140  0.39467517    -0.72300
O1403       O  0.74617376  0.47712658  0.43353557    -0.72200
O1404       O  0.74758340  0.47834469  0.35448908    -0.72400
V1405       V  0.74877055  0.02708750  0.39458876     1.35200
V1406       V  0.74669196  0.47877717  0.39400184     1.35200
C1407       C  0.74855262  0.00378644  0.34117269     0.77000
C1408       C  0.74835714  0.00231103  0.44731954     0.77100
C1409       C  0.80591171  0.00029633  0.39433577     0.76900
C1410       C  0.68905109  0.00612832  0.39509151     0.76900
O1411       O  0.74921336  0.26453986  0.35046472    -0.72200
O1412       O  0.74524528  0.26826416  0.42928076    -0.72500
O1413       O  0.79046786  0.26687491  0.39208201    -0.72300
O1414       O  0.70358983  0.26532995  0.38821788    -0.72300
O1415       O  0.70462971  0.21569234  0.39275381    -0.72300
O1416       O  0.79132712  0.21752340  0.39083215    -0.72300
O1417       O  0.74904236  0.21858353  0.43157448    -0.72200
O1418       O  0.74724420  0.21476872  0.35215574    -0.72400
V1419       V  0.74707329  0.26530368  0.38995165     1.35200
V1420       V  0.74798864  0.21754725  0.39180797     1.35200
C1421       C  0.74894026  0.23914252  0.33781787     0.77000
C1422       C  0.74736067  0.24420681  0.44387742     0.77100
C1423       C  0.80602547  0.24240088  0.39196050     0.76900
C1424       C  0.68932204  0.24021461  0.39064902     0.76900
O1425       O  0.54315051  0.02396226  0.53187037    -0.72200
O1426       O  0.95582057  0.02606422  0.53317842    -0.72500
O1427       O  0.50020556  0.02334287  0.57221994    -0.72300
O1428       O  0.99856769  0.02678349  0.49300482    -0.72300
O1429       O  0.49632380  0.47669816  0.49169744    -0.72300
O1430       O  0.00102800  0.47355999  0.57063202    -0.72300
O1431       O  0.95510726  0.47601777  0.53315429    -0.72200
O1432       O  0.54209304  0.47431569  0.52868722    -0.72400
V1433       V  0.49943590  0.02410307  0.53257538     1.35200
V1434       V  0.99866361  0.47614922  0.53111039     1.35200
C1435       C  0.55762396  0.49879715  0.52899248     0.77000
C1436       C  0.94068070  0.50121352  0.53365078     0.77100
C1437       C  0.00145881  0.49794937  0.58480806     0.76900
C1438       C  0.99672776  0.00238438  0.47892861     0.76900
O1439       O  0.95535462  0.27383334  0.53046700    -0.72200
O1440       O  0.54246657  0.27392587  0.52998671    -0.72500
O1441       O  0.99870042  0.27091717  0.49082694    -0.72300
O1442       O  0.49928991  0.27652918  0.56987876    -0.72300
O1443       O  0.99907763  0.22672118  0.57263405    -0.72300
O1444       O  0.49922381  0.22110903  0.49363356    -0.72300
O1445       O  0.54283226  0.22418215  0.53322393    -0.72200
O1446       O  0.95535304  0.22403439  0.53289243    -0.72400
V1447       V  0.99894050  0.27281169  0.53035487     1.35200
V1448       V  0.49910264  0.22497142  0.53309833     1.35200
C1449       C  0.94046528  0.24898337  0.53147012     0.77000
C1450       C  0.55751883  0.24915348  0.53134020     0.77100
C1451       C  0.99902686  0.24510853  0.47881119     0.76900
C1452       C  0.99933828  0.25246657  0.58469309     0.76900
O1453       O  0.79212416  0.02547062  0.53166056    -0.72200
O1454       O  0.70491580  0.02320782  0.53127613    -0.72500
O1455       O  0.74848808  0.02267806  0.57106297    -0.72300
O1456       O  0.74843807  0.02590957  0.49190664    -0.72300
O1457       O  0.75062926  0.47559712  0.49065107    -0.72300
O1458       O  0.74853929  0.47283273  0.56974780    -0.72300
O1459       O  0.70619375  0.47332230  0.52882439    -0.72200
O1460       O  0.79340261  0.47532841  0.53140461    -0.72400
V1461       V  0.74853739  0.02335860  0.53147005     1.35200
V1462       V  0.74971864  0.47525181  0.53018627     1.35200
C1463       C  0.80764416  0.50060172  0.53226442     0.77000
C1464       C  0.69067639  0.49787991  0.52881104     0.77100
C1465       C  0.74778409  0.49728914  0.58376647     0.76900
C1466       C  0.74935801  0.00143292  0.47782118     0.76900
O1467       O  0.74833766  0.22253166  0.48947117    -0.72200
O1468       O  0.74909020  0.22888516  0.56843200    -0.72500
O1469       O  0.70519552  0.22601276  0.52934995    -0.72300
O1470       O  0.79248666  0.22563442  0.52871664    -0.72300
O1471       O  0.79252813  0.27539882  0.52571602    -0.72300
O1472       O  0.70523144  0.27573627  0.52579516    -0.72300
O1473       O  0.74889357  0.27866259  0.56524345    -0.72200
O1474       O  0.74853367  0.27230161  0.48617486    -0.72400
V1475       V  0.74880488  0.22674798  0.52891204     1.35200
V1476       V  0.74884613  0.27455746  0.52574402     1.35200
C1477       C  0.74808001  0.24636112  0.47439960     0.77000
C1478       C  0.74882209  0.25475382  0.58027023     0.77100
C1479       C  0.69035357  0.25094355  0.52785218     0.76900
C1480       C  0.80739872  0.25049473  0.52740863     0.76900
O1481       O  0.97180400  0.00302341  0.07167784    -0.72200
O1482       O  0.97174393  0.50208989  0.99265727    -0.72500
O1483       O  0.97237648  0.45907061  0.03293493    -0.72300
O1484       O  0.97129271  0.04650583  0.03163739    -0.72300
O1485       O  0.52106995  0.04677888  0.03219800    -0.72300
O1486       O  0.52212200  0.45962153  0.03205261    -0.72300
O1487       O  0.52140986  0.00331011  0.99246679    -0.72200
O1488       O  0.52173349  0.50271251  0.07172488    -0.72400
V1489       V  0.97277910  0.50271370  0.03227345     1.35200
V1490       V  0.52062673  0.50319103  0.03219747     1.35200
C1491       C  0.99684173  0.50235101  0.08519558     0.77000
C1492       C  0.99660541  0.50221755  0.97919386     0.77100
C1493       C  0.99744846  0.44445922  0.03265481     0.76900
C1494       C  0.99608641  0.06152335  0.03193527     0.76900
O1495       O  0.52399378  0.20863674  0.03327758    -0.72200
O1496       O  0.52561416  0.29610877  0.03157447    -0.72500
O1497       O  0.52524029  0.25295266  0.07189285    -0.72300
O1498       O  0.52462712  0.25110733  0.99272312    -0.72300
O1499       O  0.97484215  0.25270428  0.99298287    -0.72300
O1500       O  0.97540949  0.25319695  0.07205895    -0.72300
O1501       O  0.97587155  0.29672597  0.03248165    -0.72200
O1502       O  0.97421230  0.20970658  0.03285051    -0.72400
V1503       V  0.52393719  0.25230229  0.03235479     1.35200
V1504       V  0.97609088  0.25317121  0.03256984     1.35200
C1505       C  0.99876529  0.19433356  0.03318468     0.77000
C1506       C  0.00087018  0.31133535  0.03204334     0.77100
C1507       C  0.00039015  0.25276101  0.08537323     0.76900
C1508       C  0.99959074  0.25091238  0.97941648     0.76900
O1509       O  0.73007862  0.04649136  0.03198221    -0.72200
O1510       O  0.72884424  0.45950123  0.02977656    -0.72500
O1511       O  0.73042449  0.00122739  0.07035845    -0.72300
O1512       O  0.72868350  0.50452931  0.99135644    -0.72300
O1513       O  0.77900338  0.00368980  0.99074259    -0.72300
O1514       O  0.77992724  0.50117084  0.06997538    -0.72300
O1515       O  0.77864637  0.45877422  0.02942938    -0.72200
O1516       O  0.77982006  0.04630020  0.03103040    -0.72400
V1517       V  0.73078281  0.00292656  0.03080368     1.35200
V1518       V  0.77819979  0.50247516  0.03036796     1.35200
C1519       C  0.75495468  0.06131138  0.03139831     0.77000
C1520       C  0.75352053  0.44430365  0.02930447     0.77100
C1521       C  0.75520810  0.50040326  0.08368816     0.76900
C1522       C  0.75338002  0.50440038  0.97764436     0.76900
O1523       O  0.72804348  0.20909119  0.02796033    -0.72200
O1524       O  0.72688477  0.29643773  0.02769942    -0.72500
O1525       O  0.72731840  0.25274454  0.98806581    -0.72300
O1526       O  0.72769000  0.25260624  0.06735558    -0.72300
O1527       O  0.77750770  0.25286913  0.06715711    -0.72300
O1528       O  0.77712519  0.25358624  0.98807040    -0.72300
O1529       O  0.77668317  0.29693083  0.02774418    -0.72200
O1530       O  0.77779800  0.20967018  0.02750439    -0.72400
V1531       V  0.72843754  0.25275734  0.02773750     1.35200
V1532       V  0.77628826  0.25328484  0.02761098     1.35200
C1533       C  0.75312294  0.19448509  0.02797559     0.77000
C1534       C  0.75161642  0.31154435  0.02776256     0.77100
C1535       C  0.75224499  0.25314984  0.97461367     0.76900
C1536       C  0.75272804  0.25235832  0.08069316     0.76900
O1537       O  0.97151573  0.49467331  0.85623698    -0.72200
O1538       O  0.97163321  0.99894889  0.93515241    -0.72500
O1539       O  0.96997682  0.04061242  0.89384255    -0.72300
O1540       O  0.97360626  0.45324490  0.89756680    -0.72300
O1541       O  0.52336477  0.45530093  0.89721683    -0.72300
O1542       O  0.51971773  0.04238250  0.89380525    -0.72300
O1543       O  0.52150210  0.50068845  0.93517184    -0.72200
O1544       O  0.52123683  0.99700756  0.85591847    -0.72400
V1545       V  0.97262293  0.99696156  0.89564058     1.35200
V1546       V  0.52042106  0.99876115  0.89554363     1.35200
C1547       C  0.99632802  0.99523336  0.84248532     0.77000
C1548       C  0.99654669  0.00066662  0.94854919     0.77100
C1549       C  0.99431228  0.05639028  0.89344398     0.76900
C1550       C  0.99913426  0.43942834  0.89768727     0.76900
O1551       O  0.97269599  0.25113430  0.85652705    -0.72200
O1552       O  0.97402571  0.24883073  0.93572927    -0.72500
O1553       O  0.97541981  0.29306127  0.89702603    -0.72300
O1554       O  0.97120653  0.20588322  0.89519613    -0.72300
O1555       O  0.52090637  0.20343657  0.89516370    -0.72300
O1556       O  0.52516418  0.29081210  0.89577100    -0.72300
O1557       O  0.52380398  0.24713892  0.93511719    -0.72200
O1558       O  0.52222757  0.24763778  0.85576647    -0.72400
V1559       V  0.97431795  0.24954153  0.89612305     1.35200
V1560       V  0.52207325  0.24719373  0.89547084     1.35200
C1561       C  0.99723207  0.25032311  0.84254282     0.77000
C1562       C  0.99915769  0.24875125  0.94887385     0.77100
C1563       C  0.00092939  0.30674788  0.89660914     0.76900
C1564       C  0.99533830  0.18973611  0.89479549     0.76900
O1565       O  0.72904952  0.50449935  0.85417864    -0.72200
O1566       O  0.72879147  0.00561321  0.93350019    -0.72500
O1567       O  0.73023604  0.04880768  0.89322741    -0.72300
O1568       O  0.72702123  0.46162878  0.89428931    -0.72300
O1569       O  0.77675590  0.45981089  0.89480595    -0.72300
O1570       O  0.78001312  0.04726390  0.89350713    -0.72300
O1571       O  0.77811250  0.50396345  0.93376316    -0.72200
O1572       O  0.77883188  0.00263353  0.85455548    -0.72400
V1573       V  0.72957520  0.50517797  0.89383457     1.35200
V1574       V  0.77738683  0.50349055  0.89425810     1.35200
C1575       C  0.75406197  0.50275084  0.84095295     0.77000
C1576       C  0.75320479  0.50480066  0.94708460     0.77100
C1577       C  0.75553976  0.06290847  0.89312081     0.76900
C1578       C  0.75134618  0.44584341  0.89438560     0.76900
O1579       O  0.72877353  0.25473831  0.85104273    -0.72200
O1580       O  0.72771659  0.25243343  0.93029734    -0.72500
O1581       O  0.72637313  0.29709537  0.89150647    -0.72300
O1582       O  0.73020310  0.20980366  0.88986410    -0.72300
O1583       O  0.77995294  0.21179713  0.89061966    -0.72300
O1584       O  0.77610277  0.29899944  0.89219369    -0.72300
O1585       O  0.77748605  0.25442109  0.93086876    -0.72200
O1586       O  0.77845068  0.25690872  0.85166040    -0.72400
V1587       V  0.72923436  0.25349582  0.89068028     1.35200
V1588       V  0.77702411  0.25543559  0.89129481     1.35200
C1589       C  0.75374665  0.25676974  0.83781314     0.77000
C1590       C  0.75242026  0.25328291  0.94403729     0.77100
C1591       C  0.75064981  0.31291094  0.89203854     0.76900
C1592       C  0.75570465  0.19593083  0.89025776     0.76900
O1593       O  0.99587478  0.46870067  0.70742789    -0.72200
O1594       O  0.50290329  0.47140690  0.62833175    -0.72500
O1595       O  0.54266273  0.46994636  0.67156091    -0.72300
O1596       O  0.95617868  0.47011436  0.66443543    -0.72300
O1597       O  0.95571899  0.01914079  0.66923549    -0.72300
O1598       O  0.54295287  0.01999501  0.66890226    -0.72300
O1599       O  0.99909556  0.02102497  0.62957657    -0.72200
O1600       O  0.49942164  0.01843763  0.70871396    -0.72400
V1601       V  0.99943586  0.47098075  0.66792945     1.35200
V1602       V  0.99931590  0.01872886  0.66911593     1.35200
C1603       C  0.99695904  0.49314879  0.72153644     0.77000
C1604       C  0.00156910  0.49676943  0.61543011     0.77100
C1605       C  0.55789998  0.49456129  0.67090105     0.76900
C1606       C  0.94116631  0.49485851  0.66603782     0.76900
O1607       O  0.99888953  0.23225140  0.70855361    -0.72200
O1608       O  0.49989837  0.22972577  0.62957035    -0.72500
O1609       O  0.54326951  0.23192308  0.66941554    -0.72300
O1610       O  0.95576348  0.23061165  0.66849903    -0.72300
O1611       O  0.95528323  0.28038929  0.66669160    -0.72300
O1612       O  0.54222429  0.28175445  0.66805070    -0.72300
O1613       O  0.99932526  0.27957975  0.62782616    -0.72200
O1614       O  0.49794799  0.28208565  0.70735037    -0.72400
V1615       V  0.99948466  0.23210184  0.66901103     1.35200
V1616       V  0.99874060  0.27998033  0.66756580     1.35200
C1617       C  0.99791839  0.25745151  0.72147248     0.77000
C1618       C  0.99957773  0.25410143  0.61524540     0.77100
C1619       C  0.55762240  0.25717214  0.66853418     0.76900
C1620       C  0.94061981  0.25541139  0.66723267     0.76900
O1621       O  0.75450384  0.47065584  0.70681754    -0.72200
O1622       O  0.74654815  0.47134923  0.62765565    -0.72500
O1623       O  0.79353340  0.47118439  0.66352610    -0.72300
O1624       O  0.70726388  0.47039308  0.67123485    -0.72300
O1625       O  0.70640149  0.02017697  0.66698712    -0.72300
O1626       O  0.79375377  0.01992167  0.66802444    -0.72300
O1627       O  0.75054085  0.02085373  0.62806400    -0.72200
O1628       O  0.74964544  0.01990525  0.70697962    -0.72400
V1629       V  0.75040224  0.47181640  0.66726731     1.35200
V1630       V  0.75007793  0.01930656  0.66751421     1.35200
C1631       C  0.75292536  0.49547547  0.72039005     0.77000
C1632       C  0.74785413  0.49649251  0.61434897     0.77100
C1633       C  0.80840566  0.49593830  0.66512113     0.76900
C1634       C  0.69169473  0.49480317  0.67008240     0.76900
O1635       O  0.74915144  0.23631097  0.70438049    -0.72200
O1636       O  0.74829970  0.23252078  0.62541354    -0.72500
O1637       O  0.79218314  0.23352181  0.66469132    -0.72300
O1638       O  0.70504692  0.23537961  0.66529355    -0.72300
O1639       O  0.70580723  0.28520333  0.66377158    -0.72300
O1640       O  0.79309786  0.28324026  0.66181433    -0.72300
O1641       O  0.74849800  0.28235127  0.62311363    -0.72200
O1642       O  0.75081746  0.28607673  0.70248937    -0.72400
V1643       V  0.74862992  0.23544023  0.66486352     1.35200
V1644       V  0.74948781  0.28328512  0.66281810     1.35200
C1645       C  0.75068723  0.26171001  0.71694807     0.77000
C1646       C  0.74848271  0.25671520  0.61081437     0.77100
C1647       C  0.80753954  0.25806781  0.66329203     0.76900
C1648       C  0.69054887  0.26054523  0.66496678     0.76900
C1649       C  0.89047713  0.23615415  0.64791654    -0.02300
C1650       C  0.90655660  0.25554472  0.66641212     0.07400
C1651       C  0.88994599  0.27593226  0.68359269    -0.02400
C1652       C  0.85769092  0.27690254  0.68234582    -0.02400
C1653       C  0.84158456  0.25738265  0.66401497     0.07500
C1654       C  0.85814775  0.23693742  0.64684780    -0.02600
Br1655     Br  0.83678596  0.21099669  0.62064684    -0.01200
Br1656     Br  0.91260734  0.20986001  0.62255113    -0.01200
Br1657     Br  0.83568310  0.30404891  0.70708733    -0.01200
Br1658     Br  0.91110467  0.30177216  0.71004657    -0.01200
C1659       C  0.60673834  0.27462076  0.64634065    -0.02300
C1660       C  0.59162676  0.25818860  0.66773099     0.07400
C1661       C  0.60911296  0.24349117  0.68863436    -0.02400
C1662       C  0.64140216  0.24481036  0.68794361    -0.02400
C1663       C  0.65654020  0.26082189  0.66633824     0.07500
C1664       C  0.63903877  0.27624375  0.64583242    -0.02600
Br1665     Br  0.65916419  0.29889790  0.61644056    -0.01200
Br1666     Br  0.58329639  0.29349918  0.61665802    -0.01200
Br1667     Br  0.66487812  0.22630878  0.71777143    -0.01200
Br1668     Br  0.58886710  0.22277997  0.71909444    -0.01200
C1669       C  0.89067354  0.47334304  0.68140749    -0.02300
C1670       C  0.90723595  0.49462235  0.66506335     0.07400
C1671       C  0.89119964  0.01503686  0.64879953    -0.02400
C1672       C  0.85890985  0.01542285  0.64873735    -0.02400
C1673       C  0.84237197  0.49542506  0.66477758     0.07500
C1674       C  0.85842627  0.47367624  0.68120870    -0.02600
Br1675     Br  0.83657584  0.44487652  0.70467108    -0.01200
Br1676     Br  0.91187557  0.44435547  0.70527754    -0.01200
Br1677     Br  0.83753148  0.04382631  0.62451109    -0.01200
Br1678     Br  0.91323117  0.04249162  0.62426290    -0.01200
C1679       C  0.60869763  0.51817783  0.68456729    -0.02300
C1680       C  0.59214690  0.49398907  0.67189094     0.07400
C1681       C  0.60856182  0.97104752  0.65768089    -0.02400
C1682       C  0.64084520  0.97061380  0.65804785    -0.02400
C1683       C  0.65749023  0.49392589  0.67168410     0.07500
C1684       C  0.64105807  0.51822047  0.68432846    -0.02600
Br1685     Br  0.66251460  0.55064165  0.70372721    -0.01200
Br1686     Br  0.58754276  0.55058108  0.70428389    -0.01200
Br1687     Br  0.66166952  0.93629868  0.64084568    -0.01200
Br1688     Br  0.58728181  0.93904162  0.63758281    -0.01200
C1689       C  0.73385418  0.27981452  0.79308334    -0.02300
C1690       C  0.75396767  0.25923743  0.80688621     0.07400
C1691       C  0.77436418  0.24122761  0.79096025    -0.02400
C1692       C  0.77415738  0.24326828  0.76164678    -0.02400
C1693       C  0.75278736  0.26240178  0.74783075     0.07500
C1694       C  0.73298539  0.28109120  0.76369013    -0.02600
Br1695     Br  0.70367932  0.30762294  0.74532618    -0.01200
Br1696     Br  0.70835907  0.30751267  0.81428524    -0.01200
Br1697     Br  0.80448959  0.22092468  0.74047363    -0.01200
Br1698     Br  0.80166200  0.21231972  0.80893875    -0.01200
C1699       C  0.76740247  0.39589493  0.87318905    -0.02300
C1700       C  0.75017386  0.41185331  0.89339802     0.07400
C1701       C  0.73166801  0.39520422  0.91227041    -0.02400
C1702       C  0.73154027  0.36282671  0.91174693    -0.02400
C1703       C  0.74956215  0.34690273  0.89208149     0.07500
C1704       C  0.76701992  0.36359491  0.87248824    -0.02600
Br1705     Br  0.78911168  0.34230954  0.84346769    -0.01200
Br1706     Br  0.79009433  0.41819699  0.84511926    -0.01200
Br1707     Br  0.70781598  0.34042410  0.93900990    -0.01200
Br1708     Br  0.70723922  0.41653501  0.93963435    -0.01200
C1709       C  0.74316853  0.14514133  0.86877507    -0.02300
C1710       C  0.75695347  0.16191185  0.89051125     0.07400
C1711       C  0.77085459  0.14605826  0.91295006    -0.02400
C1712       C  0.77055884  0.11366078  0.91378392    -0.02400
C1713       C  0.75633324  0.09692455  0.89221351     0.07500
C1714       C  0.74247546  0.11281002  0.86980474    -0.02600
Br1715     Br  0.72296453  0.09027034  0.84010682    -0.01200
Br1716     Br  0.72667392  0.16647799  0.83675355    -0.01200
Br1717     Br  0.78780645  0.09227684  0.94546265    -0.01200
Br1718     Br  0.78905857  0.16868982  0.94327625    -0.01200
C1719       C  0.77411548  0.51903995  0.79411920    -0.02300
C1720       C  0.75444742  0.50027542  0.81013411     0.07400
C1721       C  0.73523707  0.97846931  0.79670809    -0.02400
C1722       C  0.73507373  0.97622638  0.76740938    -0.02400
C1723       C  0.75450696  0.49588872  0.75125456     0.07500
C1724       C  0.77417675  0.51680404  0.76483523    -0.02600
Br1725     Br  0.80232149  0.54169582  0.74343127    -0.01200
Br1726     Br  0.80033093  0.54880328  0.81201069    -0.01200
Br1727     Br  0.70774755  0.94747422  0.74955207    -0.01200
Br1728     Br  0.71031506  0.95061735  0.81841291    -0.01200
C1729       C  0.01889440  0.27325580  0.76812165    -0.02300
C1730       C  0.99656073  0.25761967  0.75239754     0.07400
C1731       C  0.47355418  0.24078783  0.76630508    -0.02400
C1732       C  0.47357329  0.23848165  0.79564457    -0.02400
C1733       C  0.99673500  0.25306949  0.81150602     0.07500
C1734       C  0.01906895  0.27098776  0.79748596    -0.02600
Br1735     Br  0.04934987  0.29392032  0.81819395    -0.01200
Br1736     Br  0.04996426  0.29715153  0.74938609    -0.01200
Br1737     Br  0.44218768  0.21414046  0.81354811    -0.01200
Br1738     Br  0.44102109  0.22182983  0.74509043    -0.01200
C1739       C  0.51620192  0.35672587  0.91852234    -0.02300
C1740       C  0.00202092  0.34063833  0.89653340     0.07400
C1741       C  0.98774834  0.35702510  0.87470860    -0.02400
C1742       C  0.98716484  0.38930990  0.87503746    -0.02400
C1743       C  0.00051320  0.40547749  0.89738511     0.07500
C1744       C  0.51525847  0.38910929  0.91904842    -0.02600
Br1745     Br  0.53280287  0.41093583  0.95014301    -0.01200
Br1746     Br  0.53579125  0.33439288  0.94849770    -0.01200
Br1747     Br  0.96929894  0.41138306  0.84405326    -0.01200
Br1748     Br  0.97001689  0.33517324  0.84365664    -0.01200
C1749       C  0.51001842  0.13940303  0.87295713    -0.02300
C1750       C  0.99381981  0.15561479  0.89373728     0.07400
C1751       C  0.97652414  0.13903339  0.91359631    -0.02400
C1752       C  0.97661375  0.10662216  0.91345668    -0.02400
C1753       C  0.99326197  0.09046744  0.89297463     0.07500
C1754       C  0.50961605  0.10701241  0.87250410    -0.02600
Br1755     Br  0.53039562  0.08529700  0.84297529    -0.01200
Br1756     Br  0.53141459  0.16153541  0.84399305    -0.01200
Br1757     Br  0.95560187  0.08439904  0.94262860    -0.01200
Br1758     Br  0.95355271  0.16051692  0.94183650    -0.01200
C1759       C  0.97371727  0.51072775  0.79608155    -0.02300
C1760       C  0.99586533  0.49394984  0.81149183     0.07400
C1761       C  0.51702072  0.97483698  0.79717555    -0.02400
C1762       C  0.51743796  0.97452281  0.76779074    -0.02400
C1763       C  0.99586047  0.49238588  0.75239496     0.07500
C1764       C  0.97362267  0.50970860  0.76672080    -0.02600
Br1765     Br  0.94209437  0.53116957  0.74604693    -0.01200
Br1766     Br  0.94423287  0.53668140  0.81471719    -0.01200
Br1767     Br  0.54805900  0.95056229  0.74854605    -0.01200
Br1768     Br  0.54442730  0.94793383  0.81747147    -0.01200
C1769       C  0.73722176  0.39402411  0.04982717    -0.02300
C1770       C  0.75285415  0.41037950  0.02877190     0.07400
C1771       C  0.76734869  0.39425214  0.00701411    -0.02400
C1772       C  0.76676098  0.36192232  0.00662048    -0.02400
C1773       C  0.75138026  0.34552461  0.02781050     0.07500
C1774       C  0.73627523  0.36170329  0.04923340    -0.02600
Br1775     Br  0.71521377  0.33969264  0.07847812    -0.01200
Br1776     Br  0.71828214  0.41583081  0.08031511    -0.01200
Br1777     Br  0.78577917  0.34015876  0.97618876    -0.01200
Br1778     Br  0.78661688  0.41645624  0.97686815    -0.01200
C1779       C  0.77238780  0.14489019  0.04834007    -0.02300
C1780       C  0.75363466  0.16043951  0.02881680     0.07400
C1781       C  0.73531202  0.14332417  0.01024881    -0.02400
C1782       C  0.73575021  0.11098687  0.01117632    -0.02400
C1783       C  0.75473047  0.09539595  0.03052703     0.07500
C1784       C  0.77318029  0.11252986  0.04899658    -0.02600
Br1785     Br  0.79850553  0.09187578  0.07630138    -0.01200
Br1786     Br  0.79551094  0.16779804  0.07564158    -0.01200
Br1787     Br  0.71130733  0.08822165  0.98472626    -0.01200
Br1788     Br  0.71053022  0.16399536  0.98248979    -0.01200
C1789       C  0.51728012  0.39447174  0.05170413    -0.02300
C1790       C  0.99802675  0.41043230  0.03287757     0.07400
C1791       C  0.97968049  0.39375425  0.01400810    -0.02400
C1792       C  0.98129035  0.36147743  0.01335318    -0.02400
C1793       C  0.00072399  0.34543802  0.03197261     0.07500
C1794       C  0.51860345  0.36210834  0.05128808    -0.02600
Br1795     Br  0.54349531  0.34081737  0.07851783    -0.01200
Br1796     Br  0.54018965  0.41679609  0.07959089    -0.01200
Br1797     Br  0.95773081  0.33942219  0.98579642    -0.01200
Br1798     Br  0.95280235  0.41493629  0.98826069    -0.01200
C1799       C  0.97999059  0.14424375  0.05259515    -0.02300
C1800       C  0.99789606  0.16041470  0.03295017     0.07400
C1801       C  0.51441919  0.14410900  0.01254438    -0.02400
C1802       C  0.51357944  0.11181526  0.01209771    -0.02400
C1803       C  0.99605544  0.09554235  0.03196147     0.07500
C1804       C  0.97904742  0.11190598  0.05208596    -0.02600
Br1805     Br  0.95555831  0.09016186  0.07994192    -0.01200
Br1806     Br  0.95775452  0.16623871  0.08109367    -0.01200
Br1807     Br  0.53526184  0.09006249  0.98317043    -0.01200
Br1808     Br  0.53676838  0.16603434  0.98399336    -0.01200
C1809       C  0.85834805  0.23344033  0.50849758    -0.02300
C1810       C  0.84145298  0.25043684  0.52821411     0.07400
C1811       C  0.85721971  0.26720675  0.54887980    -0.02400
C1812       C  0.88954268  0.26663852  0.55003378    -0.02400
C1813       C  0.90642025  0.24922970  0.53057612     0.07500
C1814       C  0.89066966  0.23284873  0.50966189    -0.02600
Br1815     Br  0.91344666  0.21121801  0.48140582    -0.01200
Br1816     Br  0.83726899  0.21249647  0.47876694    -0.01200
Br1817     Br  0.91060849  0.28890954  0.57902175    -0.01200
Br1818     Br  0.83454234  0.29004923  0.57644607    -0.01200
C1819       C  0.60681758  0.26489798  0.50852510    -0.02300
C1820       C  0.59150690  0.24957013  0.53045675     0.07400
C1821       C  0.60879702  0.23527059  0.55174646    -0.02400
C1822       C  0.64108450  0.23626306  0.55110335    -0.02400
C1823       C  0.65638729  0.25101308  0.52888686     0.07500
C1824       C  0.63912116  0.26561186  0.50773953    -0.02600
Br1825     Br  0.65959280  0.28572274  0.47703416    -0.01200
Br1826     Br  0.58362783  0.28372349  0.47864750    -0.01200
Br1827     Br  0.66432543  0.21920751  0.58179155    -0.01200
Br1828     Br  0.58836192  0.21547040  0.58260593    -0.01200
C1829       C  0.85805879  0.01775720  0.51191733    -0.02300
C1830       C  0.84167064  0.50139004  0.53305721     0.07400
C1831       C  0.85786246  0.48563300  0.55424165    -0.02400
C1832       C  0.89020656  0.48562861  0.55449807    -0.02400
C1833       C  0.90665513  0.50173391  0.53378570     0.07500
C1834       C  0.89038120  0.01790643  0.51230095    -0.02600
Br1835     Br  0.91249667  0.03825719  0.48268823    -0.01200
Br1836     Br  0.83640764  0.03822893  0.48200298    -0.01200
Br1837     Br  0.91195331  0.46413153  0.58375425    -0.01200
Br1838     Br  0.83576172  0.46515563  0.58375335    -0.01200
C1839       C  0.60808696  0.51567084  0.50830345    -0.02300
C1840       C  0.59167757  0.49768456  0.52778864     0.07400
C1841       C  0.60791385  0.97480083  0.54312097    -0.02400
C1842       C  0.64020835  0.97504148  0.54361355    -0.02400
C1843       C  0.65667841  0.49706217  0.52769827     0.07500
C1844       C  0.64045459  0.51473471  0.50781936    -0.02600
Br1845     Br  0.66248701  0.53550320  0.47840708    -0.01200
Br1846     Br  0.58636512  0.54011716  0.48103925    -0.01200
Br1847     Br  0.66163442  0.94550970  0.56661914    -0.01200
Br1848     Br  0.58658765  0.94305151  0.56347410    -0.01200
C1849       C  0.85713892  0.27018289  0.38813685    -0.02300
C1850       C  0.84045100  0.24270518  0.39319026     0.07400
C1851       C  0.85708761  0.21541634  0.39949373    -0.02400
C1852       C  0.88942183  0.21555820  0.40042523    -0.02400
C1853       C  0.90615353  0.24291338  0.39474799     0.07500
C1854       C  0.88949694  0.27016644  0.38849355    -0.02600
Br1855     Br  0.90998991  0.30835840  0.37916112    -0.01200
Br1856     Br  0.83673231  0.30894791  0.38022713    -0.01200
Br1857     Br  0.90967755  0.17720037  0.41029467    -0.01200
Br1858     Br  0.83659058  0.17686224  0.40803344    -0.01200
C1859       C  0.60798596  0.22470881  0.41449612    -0.02300
C1860       C  0.59104718  0.23991809  0.39355776     0.07400
C1861       C  0.60630558  0.25405317  0.37106574    -0.02400
C1862       C  0.63849854  0.25422526  0.37013343    -0.02400
C1863       C  0.65554502  0.23955580  0.39135052     0.07500
C1864       C  0.64019449  0.22437070  0.41333240    -0.02600
Br1865     Br  0.66307012  0.20421886  0.44269416    -0.01200
Br1866     Br  0.58715374  0.20527462  0.44538267    -0.01200
Br1867     Br  0.65906778  0.27333388  0.33897236    -0.01200
Br1868     Br  0.58306938  0.27131241  0.34046296    -0.01200
C1869       C  0.88823319  0.01483358  0.37301983    -0.02300
C1870       C  0.90450721  0.99860666  0.39380079     0.07400
C1871       C  0.88843195  0.48093402  0.41370796    -0.02400
C1872       C  0.85612555  0.48072720  0.41347453    -0.02400
C1873       C  0.83975959  0.99889094  0.39385701    -0.00500
C1874       C  0.85601316  0.01529246  0.37323696    -0.02600
Br1875     Br  0.83424400  0.03756990  0.34443084    -0.01200
Br1876     Br  0.91000808  0.03518203  0.34320113    -0.01200
Br1877     Br  0.83429404  0.45749520  0.44148969    -0.01200
Br1878     Br  0.91028286  0.45884494  0.44254839    -0.01200
C1879       C  0.60583654  0.03454631  0.38884745    -0.02300
C1880       C  0.58928075  0.00888606  0.39904728     0.07400
C1881       C  0.60599644  0.48358955  0.41107154    -0.02400
C1882       C  0.63823308  0.48238610  0.40925549    -0.02400
C1883       C  0.65471839  0.00756878  0.39698458     0.07500
C1884       C  0.63821971  0.03392795  0.38788371    -0.02600
Br1885     Br  0.65907385  0.06958349  0.37301972    -0.01200
Br1886     Br  0.58496232  0.07137272  0.37633745    -0.01200
Br1887     Br  0.65883125  0.44673088  0.42467334    -0.01200
Br1888     Br  0.58508402  0.45253718  0.43292946    -0.01200
C1889       C  0.77509074  0.25791031  0.26438714    -0.02300
C1890       C  0.75352762  0.24177311  0.24808402     0.07400
C1891       C  0.73162034  0.22287241  0.26149626    -0.02400
C1892       C  0.72984141  0.22205313  0.29083619    -0.02400
C1893       C  0.75127893  0.23839300  0.30701506     0.07500
C1894       C  0.77472205  0.25510127  0.29360587    -0.02600
Br1895     Br  0.80775821  0.27250996  0.31513656    -0.01200
Br1896     Br  0.80401061  0.28572488  0.24726532    -0.01200
Br1897     Br  0.69706038  0.19968857  0.30866455    -0.01200
Br1898     Br  0.70498327  0.19658434  0.23997855    -0.01200
C1899       C  0.74438969  0.38910734  0.19016594    -0.02300
C1900       C  0.75838075  0.40562914  0.16826915     0.07400
C1901       C  0.77299729  0.38948725  0.14654926    -0.02400
C1902       C  0.77221522  0.35711786  0.14599120    -0.02400
C1903       C  0.75715711  0.34064826  0.16734242     0.07500
C1904       C  0.74392142  0.35673202  0.18977190    -0.02600
Br1905     Br  0.72695283  0.33429197  0.22088495    -0.01200
Br1906     Br  0.72752258  0.41082081  0.22162268    -0.01200
Br1907     Br  0.79093271  0.33540950  0.11537130    -0.01200
Br1908     Br  0.79346315  0.41167030  0.11707487    -0.01200
C1909       C  0.76830943  0.10786424  0.18563282    -0.02300
C1910       C  0.75229224  0.09074928  0.16541825     0.07400
C1911       C  0.73597630  0.10621999  0.14413071    -0.02400
C1912       C  0.73548123  0.13860316  0.14322651    -0.02400
C1913       C  0.75151295  0.15569443  0.16346426     0.07500
C1914       C  0.76796582  0.14016928  0.18463627    -0.02600
Br1915     Br  0.78922534  0.16309148  0.21313832    -0.01200
Br1916     Br  0.78986030  0.08713870  0.21549315    -0.01200
Br1917     Br  0.71435935  0.15944776  0.11325976    -0.01200
Br1918     Br  0.71600262  0.08309750  0.11504455    -0.01200
C1919       C  0.73219609  0.02056053  0.26462197    -0.02300
C1920       C  0.75359083  0.00110730  0.25127776     0.07400
C1921       C  0.77421496  0.48327192  0.26771093    -0.02400
C1922       C  0.77302243  0.48481831  0.29703045    -0.02400
C1923       C  0.75078215  0.00367118  0.31029415     0.07500
C1924       C  0.73063857  0.02157690  0.29393671    -0.02600
Br1925     Br  0.69977216  0.04659172  0.31147247    -0.01200
Br1926     Br  0.70556866  0.04706162  0.24301332    -0.01200
Br1927     Br  0.80300433  0.46251359  0.31887677    -0.01200
Br1928     Br  0.80278181  0.45534927  0.25032923    -0.01200
C1929       C  0.01676316  0.22103418  0.29577804    -0.02300
C1930       C  0.99854448  0.24175534  0.31124753     0.07400
C1931       C  0.48046268  0.26377987  0.29692941    -0.02400
C1932       C  0.48087586  0.26532246  0.26767618    -0.02400
C1933       C  0.99926403  0.24487843  0.25233744     0.07500
C1934       C  0.01693909  0.22249895  0.26642195    -0.02600
Br1935     Br  0.04044366  0.19282224  0.24552034    -0.01200
Br1936     Br  0.04299840  0.19160977  0.31442159    -0.01200
Br1937     Br  0.45696783  0.29652120  0.24872289    -0.01200
Br1938     Br  0.45404894  0.29170069  0.31686698    -0.01200
C1939       C  0.98139569  0.35786087  0.14906143    -0.02300
C1940       C  0.49908508  0.34197458  0.16919101     0.07400
C1941       C  0.51617590  0.35875969  0.18891734    -0.02400
C1942       C  0.51537001  0.39110541  0.18870762    -0.02400
C1943       C  0.49759902  0.40699579  0.16867668     0.07500
C1944       C  0.98050824  0.39022989  0.14891381    -0.02600
Br1945     Br  0.95693060  0.41150044  0.12069865    -0.01200
Br1946     Br  0.95985699  0.33544236  0.12040600    -0.01200
Br1947     Br  0.53732486  0.41355208  0.21706518    -0.01200
Br1948     Br  0.53972709  0.33753078  0.21715972    -0.01200
C1949       C  0.51578541  0.10789393  0.14786615    -0.02300
C1950       C  0.49861529  0.09205211  0.16827130     0.07400
C1951       C  0.98201575  0.10877347  0.18836579    -0.02400
C1952       C  0.98271568  0.14109273  0.18815834    -0.02400
C1953       C  0.50013312  0.15694348  0.16792609     0.07500
C1954       C  0.51680743  0.14022315  0.14787552    -0.02600
Br1955     Br  0.53995172  0.16152316  0.11951039    -0.01200
Br1956     Br  0.53626197  0.08545486  0.11861859    -0.01200
Br1957     Br  0.96093521  0.16351582  0.21664318    -0.01200
Br1958     Br  0.95927482  0.08748999  0.21703762    -0.01200
C1959       C  0.47873425  0.48122249  0.29714037    -0.02300
C1960       C  0.99701486  0.00319900  0.31131526     0.07400
C1961       C  0.01580943  0.02340938  0.29584298    -0.02400
C1962       C  0.01662511  0.02172824  0.26653098    -0.02400
C1963       C  0.99856198  0.99991509  0.25235036     0.07500
C1964       C  0.47975568  0.47942419  0.26785356    -0.02600
Br1965     Br  0.45692163  0.44768373  0.24894608    -0.01200
Br1966     Br  0.45071121  0.45492369  0.31728531    -0.01200
Br1967     Br  0.04200026  0.05014962  0.24587160    -0.01200
Br1968     Br  0.04144047  0.05297480  0.31445565    -0.01200
O1969       O  0.52304341  0.99859640  0.20779982    -0.72200
O1970       O  0.52210848  0.50040869  0.12891828    -0.72500
O1971       O  0.52276104  0.54301279  0.16893979    -0.72300
O1972       O  0.52225873  0.95580726  0.16763381    -0.72300
O1973       O  0.97249138  0.95610603  0.16845100    -0.72300
O1974       O  0.97297315  0.54342190  0.16892920    -0.72300
O1975       O  0.97226321  0.00042504  0.12908885    -0.72200
O1976       O  0.97311593  0.49944508  0.20833718    -0.72400
V1977       V  0.52153435  0.49944055  0.16845114     1.35200
V1978       V  0.97368816  0.49975229  0.16877154     1.35200
C1979       C  0.99812630  0.49909210  0.22166501     0.77000
C1980       C  0.99711301  0.50100706  0.11566460     0.77100
C1981       C  0.49797794  0.55807587  0.16882562     0.76900
C1982       C  0.49732535  0.94106662  0.16806789     0.76900
O1983       O  0.52466574  0.74819272  0.20831863    -0.72200
O1984       O  0.52509611  0.75080687  0.12923723    -0.72500
O1985       O  0.52446049  0.79324410  0.16952209    -0.72300
O1986       O  0.52512134  0.70581477  0.16794878    -0.72300
O1987       O  0.97533867  0.70574207  0.16718491    -0.72300
O1988       O  0.97469196  0.79283747  0.16969192    -0.72300
O1989       O  0.97526479  0.75101791  0.12901331    -0.72200
O1990       O  0.97489901  0.74731274  0.20791036    -0.72400
V1991       V  0.52389458  0.74952371  0.16875956     1.35200
V1992       V  0.97604501  0.74925774  0.16846595     1.35200
C1993       C  0.99968530  0.74685251  0.22155715     0.77000
C1994       C  0.00023177  0.75159662  0.11573800     0.77100
C1995       C  0.49940803  0.80793757  0.16955385     0.76900
C1996       C  0.50024731  0.69091640  0.16754585     0.76900
O1997       O  0.73000304  0.49770216  0.20661017    -0.72200
O1998       O  0.73070526  0.99742134  0.12741063    -0.72500
O1999       O  0.73188008  0.95375379  0.16743120    -0.72300
O2000       O  0.72886807  0.54112124  0.16660158    -0.72300
O2001       O  0.77862525  0.54267445  0.16687918    -0.72300
O2002       O  0.78164163  0.95540840  0.16801074    -0.72300
O2003       O  0.78036814  0.49892231  0.12778335    -0.72200
O2004       O  0.77948796  0.99982855  0.20714162    -0.72400
V2005       V  0.73129281  0.99747597  0.16695066     1.35200
V2006       V  0.77909559  0.99907816  0.16744019     1.35200
C2007       C  0.75440000  0.99935248  0.22035095     0.77000
C2008       C  0.75562511  0.99869349  0.11413792     0.77100
C2009       C  0.75728139  0.93970307  0.16790140     0.76900
C2010       C  0.75327608  0.55676523  0.16640723     0.76900
O2011       O  0.72880585  0.74723564  0.20379896    -0.72200
O2012       O  0.72852436  0.75090724  0.12478493    -0.72500
O2013       O  0.72744846  0.70529369  0.16293742    -0.72300
O2014       O  0.73030961  0.79280927  0.16585170    -0.72300
O2015       O  0.78007591  0.79092747  0.16604033    -0.72300
O2016       O  0.77721197  0.70395095  0.16238792    -0.72300
O2017       O  0.77833172  0.74973537  0.12461253    -0.72200
O2018       O  0.77846551  0.74484550  0.20377691    -0.72400
V2019       V  0.72972413  0.74904849  0.16430464     1.35200
V2020       V  0.77753477  0.74743519  0.16418680     1.35200
C2021       C  0.75358375  0.74491255  0.21730201     0.77000
C2022       C  0.75332220  0.75105442  0.11126985     0.77100
C2023       C  0.75199889  0.68974298  0.16264880     0.76900
C2024       C  0.75577017  0.80672214  0.16640466     0.76900
O2025       O  0.99621079  0.52831244  0.35588479    -0.72200
O2026       O  0.49421825  0.52782993  0.43520743    -0.72500
O2027       O  0.53871924  0.53067439  0.39717008    -0.72300
O2028       O  0.95187730  0.52562488  0.39450869    -0.72300
O2029       O  0.95458102  0.97616991  0.39520339    -0.72300
O2030       O  0.54154223  0.98165565  0.39553914    -0.72300
O2031       O  0.99795841  0.97847464  0.43483935    -0.72200
O2032       O  0.49829782  0.97894816  0.35593558    -0.72400
V2033       V  0.99531101  0.52717688  0.39561139     1.35200
V2034       V  0.99803629  0.97979515  0.39538777     1.35200
C2035       C  0.99726846  0.50340367  0.34238717     0.77000
C2036       C  0.99610395  0.50276619  0.44844660     0.77100
C2037       C  0.55519126  0.50678670  0.39727951     0.76900
C2038       C  0.93848852  0.49991649  0.39455142     0.76900
O2039       O  0.99922694  0.76616695  0.35549648    -0.72200
O2040       O  0.50012964  0.76762753  0.43418768    -0.72500
O2041       O  0.54306636  0.76584882  0.39426473    -0.72300
O2042       O  0.95603928  0.76714705  0.39553114    -0.72300
O2043       O  0.95549685  0.71776620  0.39482709    -0.72300
O2044       O  0.54217645  0.71598338  0.39601424    -0.72300
O2045       O  0.99833204  0.71779672  0.43542995    -0.72200
O2046       O  0.49911317  0.71641582  0.35589809    -0.72400
V2047       V  0.99958991  0.76571751  0.39487498     1.35200
V2048       V  0.99881949  0.71790503  0.39560281     1.35200
C2049       C  0.99904516  0.74127147  0.34214334     0.77000
C2050       C  0.99914499  0.74316838  0.44824946     0.77100
C2051       C  0.55735948  0.74058780  0.39482007     0.76900
C2052       C  0.94062328  0.74259934  0.39508669     0.76900
O2053       O  0.74807536  0.52816697  0.35487388    -0.72200
O2054       O  0.75032855  0.52682975  0.43416676    -0.72500
O2055       O  0.79238547  0.52536614  0.39360124    -0.72300
O2056       O  0.70545859  0.52959932  0.39609545    -0.72300
O2057       O  0.70295542  0.98071871  0.39310338    -0.72300
O2058       O  0.78997601  0.97609685  0.39492943    -0.72300
O2059       O  0.74584483  0.97772049  0.43358288    -0.72200
O2060       O  0.74759495  0.97878079  0.35454894    -0.72400
V2061       V  0.74894279  0.52656217  0.39459189     1.35200
V2062       V  0.74653809  0.97930156  0.39406011     1.35200
C2063       C  0.74854121  0.50338618  0.34116688     0.77000
C2064       C  0.74875584  0.50171286  0.44727705     0.77100
C2065       C  0.80606535  0.49976544  0.39405547     0.76900
C2066       C  0.68921827  0.50560228  0.39528485     0.76900
O2067       O  0.74908830  0.76470810  0.35060114    -0.72200
O2068       O  0.74532421  0.76823403  0.42938928    -0.72500
O2069       O  0.79046139  0.76686950  0.39212449    -0.72300
O2070       O  0.70357019  0.76541792  0.38842683    -0.72300
O2071       O  0.70459031  0.71575128  0.39269943    -0.72300
O2072       O  0.79128108  0.71752052  0.39098002    -0.72300
O2073       O  0.74890903  0.71853238  0.43160914    -0.72200
O2074       O  0.74729345  0.71492662  0.35217688    -0.72400
V2075       V  0.74705871  0.76535408  0.39007438     1.35200
V2076       V  0.74794549  0.71758901  0.39184109     1.35200
C2077       C  0.74888472  0.73935305  0.33789755     0.77000
C2078       C  0.74733771  0.74414415  0.44394234     0.77100
C2079       C  0.80600075  0.74238123  0.39210257     0.76900
C2080       C  0.68929570  0.74029178  0.39073024     0.76900
O2081       O  0.54338540  0.52405406  0.53090140    -0.72200
O2082       O  0.95600283  0.52586918  0.53361053    -0.72500
O2083       O  0.50108370  0.52341319  0.57204738    -0.72300
O2084       O  0.99813044  0.52654917  0.49287264    -0.72300
O2085       O  0.49590091  0.97698607  0.49167517    -0.72300
O2086       O  0.00084987  0.97350217  0.57063634    -0.72300
O2087       O  0.95484548  0.97620489  0.53321946    -0.72200
O2088       O  0.54174302  0.97438094  0.52853142    -0.72400
V2089       V  0.49965146  0.52402936  0.53239078     1.35200
V2090       V  0.99835860  0.97625477  0.53109812     1.35200
C2091       C  0.55738759  0.99875200  0.52952359     0.77000
C2092       C  0.94047805  0.00143508  0.53338573     0.77100
C2093       C  0.00092503  0.99784538  0.58489874     0.76900
C2094       C  0.99670713  0.50206767  0.47889196     0.76900
O2095       O  0.95525361  0.77349610  0.53038256    -0.72200
O2096       O  0.54235624  0.77369440  0.52991543    -0.72500
O2097       O  0.99861262  0.77059538  0.49076213    -0.72300
O2098       O  0.49915993  0.77629329  0.56978936    -0.72300
O2099       O  0.99908422  0.72648843  0.57260269    -0.72300
O2100       O  0.49910951  0.72078820  0.49359417    -0.72300
O2101       O  0.54277934  0.72394960  0.53311623    -0.72200
O2102       O  0.95530015  0.72370518  0.53293149    -0.72400
V2103       V  0.99883431  0.77252753  0.53027774     1.35200
V2104       V  0.49904938  0.72468990  0.53306245     1.35200
C2105       C  0.94038775  0.74863686  0.53147117     0.77000
C2106       C  0.55743749  0.74893859  0.53123414     0.77100
C2107       C  0.99893281  0.74478135  0.47876059     0.76900
C2108       C  0.99926199  0.75225406  0.58463098     0.76900
O2109       O  0.79213399  0.52516716  0.53229251    -0.72200
O2110       O  0.70487954  0.52313370  0.53009876    -0.72500
O2111       O  0.74754868  0.52269593  0.57088110    -0.72300
O2112       O  0.74932940  0.52546485  0.49173633    -0.72300
O2113       O  0.75092749  0.97609550  0.49058706    -0.72300
O2114       O  0.74840488  0.97281746  0.56966194    -0.72300
O2115       O  0.70633672  0.97354428  0.52844733    -0.72200
O2116       O  0.79343179  0.97561537  0.53149894    -0.72400
V2117       V  0.74851924  0.52314701  0.53127104     1.35200
V2118       V  0.74980232  0.97549207  0.53009957     1.35200
C2119       C  0.80763451  0.00091556  0.53191302     0.77000
C2120       C  0.69071920  0.99800199  0.52931409     0.77100
C2121       C  0.74826098  0.99720012  0.58381280     0.76900
C2122       C  0.74972244  0.50089360  0.47777091     0.76900
O2123       O  0.74831708  0.72244998  0.48951564    -0.72200
O2124       O  0.74891077  0.72884363  0.56846376    -0.72500
O2125       O  0.70510585  0.72598157  0.52929194    -0.72300
O2126       O  0.79238269  0.72554234  0.52882684    -0.72300
O2127       O  0.79247235  0.77529986  0.52574980    -0.72300
O2128       O  0.70516717  0.77570786  0.52578648    -0.72300
O2129       O  0.74881411  0.77862056  0.56525801    -0.72200
O2130       O  0.74849702  0.77222166  0.48621350    -0.72400
V2131       V  0.74870775  0.72668749  0.52894717     1.35200
V2132       V  0.74878668  0.77449644  0.52576562     1.35200
C2133       C  0.74805740  0.74627856  0.47444828     0.77000
C2134       C  0.74868094  0.75471843  0.58029061     0.77100
C2135       C  0.69027508  0.75091769  0.52779183     0.76900
C2136       C  0.80731996  0.75038366  0.52747924     0.76900
O2137       O  0.97190906  0.50295715  0.07183774    -0.72200
O2138       O  0.97160666  0.00220734  0.99250453    -0.72500
O2139       O  0.97212225  0.95915586  0.03273594    -0.72300
O2140       O  0.97129922  0.54641885  0.03178539    -0.72300
O2141       O  0.52107370  0.54680958  0.03240705    -0.72300
O2142       O  0.52187047  0.95958319  0.03189076    -0.72300
O2143       O  0.52154081  0.50336161  0.99261733    -0.72200
O2144       O  0.52162818  0.00270004  0.07153530    -0.72400
V2145       V  0.97265183  0.00280204  0.03210986     1.35200
V2146       V  0.52050202  0.00315810  0.03202061     1.35200
C2147       C  0.99674741  0.00237743  0.08501965     0.77000
C2148       C  0.99647118  0.00225336  0.97905477     0.77100
C2149       C  0.99715789  0.94448269  0.03247223     0.76900
C2150       C  0.99605589  0.56149707  0.03211687     0.76900
O2151       O  0.52388635  0.70866929  0.03325048    -0.72200
O2152       O  0.52536890  0.79616141  0.03150648    -0.72500
O2153       O  0.52504579  0.75301226  0.07183482    -0.72300
O2154       O  0.52449204  0.75112472  0.99266604    -0.72300
O2155       O  0.97470511  0.75260224  0.99289938    -0.72300
O2156       O  0.97521611  0.75322500  0.07198811    -0.72300
O2157       O  0.97562402  0.79669700  0.03233866    -0.72200
O2158       O  0.97410550  0.70967318  0.03283869    -0.72400
V2159       V  0.52376680  0.75234301  0.03229994     1.35200
V2160       V  0.97592060  0.75313919  0.03249132     1.35200
C2161       C  0.99867575  0.69432983  0.03319503     0.77000
C2162       C  0.00059762  0.81134914  0.03193238     0.77100
C2163       C  0.00019392  0.75280249  0.08531027     0.76900
C2164       C  0.99946737  0.75085697  0.97934443     0.76900
O2165       O  0.72981005  0.54657480  0.03214929    -0.72200
O2166       O  0.72943093  0.95941749  0.02959555    -0.72500
O2167       O  0.73011747  0.50131660  0.07052773    -0.72300
O2168       O  0.72919324  0.00444503  0.99121870    -0.72300
O2169       O  0.77848841  0.50357947  0.99082236    -0.72300
O2170       O  0.78023474  0.00121477  0.06992779    -0.72300
O2171       O  0.77923550  0.95884653  0.02931895    -0.72200
O2172       O  0.77954821  0.54621252  0.03107264    -0.72400
V2173       V  0.73035385  0.50300984  0.03096470     1.35200
V2174       V  0.77863137  0.00255243  0.03029973     1.35200
C2175       C  0.75473689  0.56130670  0.03151422     0.77000
C2176       C  0.75415550  0.94429703  0.02914487     0.77100
C2177       C  0.75552455  0.00037520  0.08358303     0.76900
C2178       C  0.75395680  0.00441223  0.97753955     0.76900
O2179       O  0.72834829  0.70915964  0.02805788    -0.72200
O2180       O  0.72744952  0.79649334  0.02766637    -0.72500
O2181       O  0.72776881  0.75275131  0.98809967    -0.72300
O2182       O  0.72810031  0.75271254  0.06738007    -0.72300
O2183       O  0.77791829  0.75281687  0.06722494    -0.72300
O2184       O  0.77757700  0.75345765  0.98811023    -0.72300
O2185       O  0.77724910  0.79684928  0.02774549    -0.72200
O2186       O  0.77810342  0.70957725  0.02760646    -0.72400
V2187       V  0.72887367  0.75281466  0.02776860     1.35200
V2188       V  0.77672526  0.75319941  0.02766347     1.35200
C2189       C  0.75337869  0.69447293  0.02809907     0.77000
C2190       C  0.75222147  0.81153189  0.02772037     0.77100
C2191       C  0.75269500  0.75309150  0.97464755     0.76900
C2192       C  0.75312055  0.75237303  0.08074168     0.76900
O2193       O  0.97157352  0.99482271  0.85613457    -0.72200
O2194       O  0.97171984  0.49893226  0.93528267    -0.72500
O2195       O  0.96980986  0.54053977  0.89390501    -0.72300
O2196       O  0.97341052  0.95331148  0.89741433    -0.72300
O2197       O  0.52317573  0.95517309  0.89733322    -0.72300
O2198       O  0.51954430  0.54250099  0.89397338    -0.72300
O2199       O  0.52141740  0.00070864  0.93510809    -0.72200
O2200       O  0.52112686  0.49733842  0.85591806    -0.72400
V2201       V  0.97263595  0.49689224  0.89575503     1.35200
V2202       V  0.52041939  0.49889109  0.89557635     1.35200
C2203       C  0.99621304  0.49534182  0.84250436     0.77000
C2204       C  0.99665059  0.50063875  0.94865873     0.77100
C2205       C  0.99408921  0.55640815  0.89353893     0.76900
C2206       C  0.99888328  0.93939526  0.89768968     0.76900
O2207       O  0.97261185  0.75122565  0.85645095    -0.72200
O2208       O  0.97392853  0.74876265  0.93564519    -0.72500
O2209       O  0.97536011  0.79304723  0.89701496    -0.72300
O2210       O  0.97107493  0.70590539  0.89504475    -0.72300
O2211       O  0.52077176  0.70340406  0.89505436    -0.72300
O2212       O  0.52510071  0.79078660  0.89570628    -0.72300
O2213       O  0.52370583  0.74708871  0.93504029    -0.72200
O2214       O  0.52213675  0.74764982  0.85567250    -0.72400
V2215       V  0.97422836  0.74954739  0.89604094     1.35200
V2216       V  0.52198066  0.74716686  0.89538514     1.35200
C2217       C  0.99714107  0.75040482  0.84245823     0.77000
C2218       C  0.99905553  0.74868695  0.94879613     0.77100
C2219       C  0.00086985  0.80672543  0.89657588     0.76900
C2220       C  0.99518606  0.68973261  0.89466311     0.76900
O2221       O  0.72911269  0.00450756  0.85421777    -0.72200
O2222       O  0.72832197  0.50566069  0.93350930    -0.72500
O2223       O  0.73002796  0.54882028  0.89319529    -0.72300
O2224       O  0.72737247  0.96160119  0.89427430    -0.72300
O2225       O  0.77711121  0.95985705  0.89463009    -0.72300
O2226       O  0.77980032  0.54720643  0.89369869    -0.72300
O2227       O  0.77858766  0.00402738  0.93359523    -0.72200
O2228       O  0.77876604  0.50261038  0.85472704    -0.72400
V2229       V  0.72984848  0.00515980  0.89384498     1.35200
V2230       V  0.77766470  0.00354071  0.89408546     1.35200
C2231       C  0.75404927  0.00273256  0.84089536     0.77000
C2232       C  0.75367518  0.00481188  0.94699141     0.77100
C2233       C  0.75535113  0.56288468  0.89319910     0.76900
C2234       C  0.75172228  0.94585044  0.89427679     0.76900
O2235       O  0.72905011  0.75479868  0.85109121    -0.72200
O2236       O  0.72812026  0.75247060  0.93035005    -0.72500
O2237       O  0.72684209  0.79714354  0.89156364    -0.72300
O2238       O  0.73039962  0.70985428  0.88990875    -0.72300
O2239       O  0.78015630  0.71168999  0.89061780    -0.72300
O2240       O  0.77657788  0.79891964  0.89216045    -0.72300
O2241       O  0.77789447  0.75433369  0.93086312    -0.72200
O2242       O  0.77873595  0.75679422  0.85163889    -0.72400
V2243       V  0.72957283  0.75354298  0.89072974     1.35200
V2244       V  0.77736873  0.75534123  0.89128070     1.35200
C2245       C  0.75400706  0.75675080  0.83782559     0.77000
C2246       C  0.75284586  0.75324502  0.94406393     0.77100
C2247       C  0.75115848  0.81289756  0.89204694     0.76900
C2248       C  0.75585526  0.69590105  0.89028514     0.76900
O2249       O  0.99658873  0.96868623  0.70757863    -0.72200
O2250       O  0.50286828  0.97130357  0.62843019    -0.72500
O2251       O  0.54307741  0.97036386  0.67131082    -0.72300
O2252       O  0.95649389  0.96957716  0.66490153    -0.72300
O2253       O  0.95585541  0.51969304  0.66879812    -0.72300
O2254       O  0.54311365  0.51951369  0.66911246    -0.72300
O2255       O  0.99962658  0.52116128  0.62948685    -0.72200
O2256       O  0.49920406  0.51842034  0.70865333    -0.72400
V2257       V  0.99978838  0.97091850  0.66805973     1.35200
V2258       V  0.99946025  0.51878318  0.66902576     1.35200
C2259       C  0.99747176  0.99317418  0.72164339     0.77000
C2260       C  0.00116635  0.99663793  0.61552187     0.77100
C2261       C  0.55799498  0.99518525  0.67048374     0.76900
C2262       C  0.94124110  0.99417122  0.66655894     0.76900
O2263       O  0.99868603  0.73240478  0.70853766    -0.72200
O2264       O  0.49980636  0.72962554  0.62956072    -0.72500
O2265       O  0.54311603  0.73197454  0.66944182    -0.72300
O2266       O  0.95561511  0.73060334  0.66844339    -0.72300
O2267       O  0.95510023  0.78038139  0.66659012    -0.72300
O2268       O  0.54205227  0.78179947  0.66788090    -0.72300
O2269       O  0.99912898  0.77947419  0.62769776    -0.72200
O2270       O  0.49779393  0.78223601  0.70721326    -0.72400
V2271       V  0.99933411  0.73212699  0.66899611     1.35200
V2272       V  0.99856354  0.78000165  0.66743257     1.35200
C2273       C  0.99773091  0.75764472  0.72139561     0.77000
C2274       C  0.99945545  0.75395983  0.61517857     0.77100
C2275       C  0.55746001  0.75722383  0.66845863     0.76900
C2276       C  0.94045565  0.75539149  0.66716100     0.76900
O2277       O  0.75376476  0.97024457  0.70685931    -0.72200
O2278       O  0.74659686  0.97113382  0.62763857    -0.72500
O2279       O  0.79326932  0.97034323  0.66391903    -0.72300
O2280       O  0.70683189  0.97066368  0.67083090    -0.72300
O2281       O  0.70611930  0.51985083  0.66735926    -0.72300
O2282       O  0.79353235  0.52079117  0.66749007    -0.72300
O2283       O  0.74979765  0.52112009  0.62797383    -0.72200
O2284       O  0.74986016  0.52026873  0.70693607    -0.72400
V2285       V  0.75006220  0.97150593  0.66728246     1.35200
V2286       V  0.74982721  0.51961020  0.66743881     1.35200
C2287       C  0.75239781  0.99507762  0.72042685     0.77000
C2288       C  0.74833182  0.99628159  0.61438708     0.77100
C2289       C  0.80839732  0.99494056  0.66565096     0.76900
C2290       C  0.69163240  0.99531595  0.66946604     0.76900
O2291       O  0.74904212  0.73635658  0.70440304    -0.72200
O2292       O  0.74810735  0.73250997  0.62543789    -0.72500
O2293       O  0.79202351  0.73351317  0.66467446    -0.72300
O2294       O  0.70489362  0.73540536  0.66533492    -0.72300
O2295       O  0.70566023  0.78522648  0.66373426    -0.72300
O2296       O  0.79296296  0.78323680  0.66183438    -0.72300
O2297       O  0.74838029  0.78233943  0.62311299    -0.72200
O2298       O  0.75067573  0.78612005  0.70248395    -0.72400
V2299       V  0.74847424  0.73545439  0.66488359     1.35200
V2300       V  0.74934882  0.78329841  0.66281363     1.35200
C2301       C  0.75060128  0.76176409  0.71695785     0.77000
C2302       C  0.74832807  0.75669572  0.61082866     0.77100
C2303       C  0.80738913  0.75805279  0.66329022     0.76900
C2304       C  0.69039735  0.76057008  0.66494930     0.76900
C2305       C  0.89030919  0.73620499  0.64779731    -0.02300
C2306       C  0.90639450  0.75549779  0.66637277     0.07400
C2307       C  0.88979146  0.77575915  0.68367922    -0.02400
C2308       C  0.85753481  0.77670579  0.68247524    -0.02400
C2309       C  0.84142813  0.75734388  0.66401188     0.07500
C2310       C  0.85798062  0.73702165  0.64671980    -0.02600
Br2311     Br  0.83659765  0.71131087  0.62034720    -0.01200
Br2312     Br  0.91243198  0.70997832  0.62237156    -0.01200
Br2313     Br  0.83551430  0.80356598  0.70746036    -0.01200
Br2314     Br  0.91097087  0.80144913  0.71023612    -0.01200
C2315       C  0.60659429  0.77451781  0.64618241    -0.02300
C2316       C  0.59146615  0.75823599  0.66765780     0.07400
C2317       C  0.60893874  0.74364010  0.68862781    -0.02400
C2318       C  0.64122874  0.74492351  0.68793302    -0.02400
C2319       C  0.65638465  0.76084149  0.66628197     0.07500
C2320       C  0.63889830  0.77613347  0.64568403    -0.02600
Br2321     Br  0.65905365  0.79855712  0.61616443    -0.01200
Br2322     Br  0.58316976  0.79316837  0.61637073    -0.01200
Br2323     Br  0.66468576  0.72644684  0.71778442    -0.01200
Br2324     Br  0.58867078  0.72311111  0.71917641    -0.01200
C2325       C  0.89077505  0.97188164  0.68139250    -0.02300
C2326       C  0.90728762  0.99368971  0.66556216     0.07400
C2327       C  0.89123334  0.51559342  0.64785235    -0.02400
C2328       C  0.85893052  0.51610961  0.64781504    -0.02400
C2329       C  0.84238352  0.99425372  0.66523205     0.07500
C2330       C  0.85850218  0.97209401  0.68116392    -0.02600
Br2331     Br  0.83672858  0.94257573  0.70393338    -0.01200
Br2332     Br  0.91205000  0.94234525  0.70464969    -0.01200
Br2333     Br  0.83756144  0.54391035  0.62303238    -0.01200
Br2334     Br  0.91342496  0.54221401  0.62270005    -0.01200
C2335       C  0.60874101  0.01830938  0.68479817    -0.02300
C2336       C  0.59218746  0.99496290  0.67094257     0.07400
C2337       C  0.60862233  0.46894550  0.66045425    -0.02400
C2338       C  0.64093325  0.46864751  0.66080867    -0.02400
C2339       C  0.65744566  0.99489136  0.67053988     0.07500
C2340       C  0.64110012  0.01852063  0.68425968    -0.02600
Br2341     Br  0.66269651  0.05029309  0.70435615    -0.01200
Br2342     Br  0.58751818  0.04905668  0.70648105    -0.01200
Br2343     Br  0.66174030  0.43286626  0.64609994    -0.01200
Br2344     Br  0.58761562  0.43479152  0.64313645    -0.01200
C2345       C  0.73414236  0.77996501  0.79315707    -0.02300
C2346       C  0.75417534  0.75925902  0.80689749     0.07400
C2347       C  0.77444937  0.74117998  0.79090911    -0.02400
C2348       C  0.77417151  0.74325476  0.76159655    -0.02400
C2349       C  0.75282572  0.76247208  0.74784036     0.07500
C2350       C  0.73319456  0.78127779  0.76376492    -0.02600
Br2351     Br  0.70404907  0.80806964  0.74550326    -0.01200
Br2352     Br  0.70887461  0.80778733  0.81444906    -0.01200
Br2353     Br  0.80442059  0.72088630  0.74034564    -0.01200
Br2354     Br  0.80167099  0.71213756  0.80880145    -0.01200
C2355       C  0.76775685  0.89589243  0.87304352    -0.02300
C2356       C  0.75059858  0.91185396  0.89330353     0.07400
C2357       C  0.73221900  0.89519935  0.91226992    -0.02400
C2358       C  0.73215510  0.86282293  0.91179599    -0.02400
C2359       C  0.75012256  0.84689370  0.89209358     0.07500
C2360       C  0.76746987  0.86358321  0.87241531    -0.02600
Br2361     Br  0.78953197  0.84227641  0.84338873    -0.01200
Br2362     Br  0.79015256  0.91819831  0.84478057    -0.01200
Br2363     Br  0.70858270  0.84042947  0.93917344    -0.01200
Br2364     Br  0.70784019  0.91652904  0.93966965    -0.01200
C2365       C  0.74307777  0.64513639  0.86887055    -0.02300
C2366       C  0.75698697  0.66187958  0.89056002     0.07400
C2367       C  0.77088543  0.64600076  0.91298518    -0.02400
C2368       C  0.77049282  0.61360670  0.91384014    -0.02400
C2369       C  0.75619727  0.59689734  0.89229076     0.07500
C2370       C  0.74232463  0.61280723  0.86990276    -0.02600
Br2371     Br  0.72273017  0.59030609  0.84022308    -0.01200
Br2372     Br  0.72646255  0.66650256  0.83691581    -0.01200
Br2373     Br  0.78768735  0.59219922  0.94553180    -0.01200
Br2374     Br  0.78920194  0.66859629  0.94327746    -0.01200
C2375       C  0.77395766  0.01875112  0.79397295    -0.02300
C2376       C  0.75425351  0.00015652  0.81010086     0.07400
C2377       C  0.73561554  0.47854078  0.79660124    -0.02400
C2378       C  0.73555742  0.47643487  0.76729042    -0.02400
C2379       C  0.75406218  0.99552776  0.75126758     0.07500
C2380       C  0.77392185  0.01636701  0.76471393    -0.02600
Br2381     Br  0.80225104  0.04090680  0.74316547    -0.01200
Br2382     Br  0.80033389  0.04852320  0.81165910    -0.01200
Br2383     Br  0.70834622  0.44770520  0.74925844    -0.01200
Br2384     Br  0.71083368  0.45041617  0.81814075    -0.01200
C2385       C  0.01869528  0.77351306  0.76804200    -0.02300
C2386       C  0.99634798  0.75789063  0.75232094     0.07400
C2387       C  0.47332924  0.74108471  0.76623485    -0.02400
C2388       C  0.47340213  0.73870662  0.79556811    -0.02400
C2389       C  0.99661690  0.75321816  0.81142382     0.07500
C2390       C  0.01893119  0.77116428  0.79740458    -0.02600
Br2391     Br  0.04927610  0.79400640  0.81811460    -0.01200
Br2392     Br  0.04965824  0.79754712  0.74930582    -0.01200
Br2393     Br  0.44202246  0.71435326  0.81346630    -0.01200
Br2394     Br  0.44068309  0.72229703  0.74503952    -0.01200
C2395       C  0.51621198  0.85671805  0.91841475    -0.02300
C2396       C  0.00192986  0.84061090  0.89649716     0.07400
C2397       C  0.98737239  0.85696839  0.87481111    -0.02400
C2398       C  0.98657115  0.88924400  0.87522433    -0.02400
C2399       C  0.00015691  0.90543922  0.89744219     0.07500
C2400       C  0.51514759  0.88909458  0.91898307    -0.02600
Br2401     Br  0.53275755  0.91092693  0.95004738    -0.01200
Br2402     Br  0.53610612  0.83441967  0.94824651    -0.01200
Br2403     Br  0.96793935  0.91124101  0.84456714    -0.01200
Br2404     Br  0.96958896  0.83509061  0.84379334    -0.01200
C2405       C  0.50977799  0.63934555  0.87287286    -0.02300
C2406       C  0.99360714  0.65561516  0.89363185     0.07400
C2407       C  0.97624956  0.63909330  0.91349099    -0.02400
C2408       C  0.97633446  0.60668205  0.91342875    -0.02400
C2409       C  0.99295185  0.59047488  0.89296697     0.07500
C2410       C  0.50927322  0.60695835  0.87243659    -0.02600
Br2411     Br  0.52983820  0.58515059  0.84283794    -0.01200
Br2412     Br  0.53130544  0.66138766  0.84393476    -0.01200
Br2413     Br  0.95538152  0.58453344  0.94267834    -0.01200
Br2414     Br  0.95318001  0.66065620  0.94161516    -0.01200
C2415       C  0.97477426  0.01165987  0.79611178    -0.02300
C2416       C  0.99605706  0.99387176  0.81153567     0.07400
C2417       C  0.51757785  0.47582208  0.79702748    -0.02400
C2418       C  0.51760600  0.47517212  0.76763260    -0.02400
C2419       C  0.99633642  0.99248509  0.75249367     0.07500
C2420       C  0.97461148  0.01052541  0.76677320    -0.02600
Br2421     Br  0.94356806  0.03274068  0.74614826    -0.01200
Br2422     Br  0.94672933  0.03914626  0.81476635    -0.01200
Br2423     Br  0.54839754  0.45160374  0.74820397    -0.01200
Br2424     Br  0.54679274  0.45071769  0.81714113    -0.01200
C2425       C  0.73793072  0.89404003  0.04971183    -0.02300
C2426       C  0.75356974  0.91036914  0.02864733     0.07400
C2427       C  0.76806788  0.89421301  0.00690544    -0.02400
C2428       C  0.76747124  0.86187713  0.00654477    -0.02400
C2429       C  0.75206007  0.84551269  0.02774020     0.07500
C2430       C  0.73694648  0.86172500  0.04913439    -0.02600
Br2431     Br  0.71577264  0.83977064  0.07834530    -0.01200
Br2432     Br  0.71901098  0.91588282  0.08018828    -0.01200
Br2433     Br  0.78648274  0.84005883  0.97613999    -0.01200
Br2434     Br  0.78732237  0.91637814  0.97673015    -0.01200
C2435       C  0.77252226  0.64481053  0.04844177    -0.02300
C2436       C  0.75376464  0.66042796  0.02896428     0.07400
C2437       C  0.73529744  0.64337959  0.01046249    -0.02400
C2438       C  0.73564179  0.61104502  0.01137054    -0.02400
C2439       C  0.75463149  0.59538650  0.03066322     0.07500
C2440       C  0.77319444  0.61244697  0.04909583    -0.02600
Br2441     Br  0.79851047  0.59168939  0.07634602    -0.01200
Br2442     Br  0.79579805  0.66762734  0.07569997    -0.01200
Br2443     Br  0.71106554  0.58837038  0.98495845    -0.01200
Br2444     Br  0.71040684  0.66412925  0.98283215    -0.01200
C2445       C  0.51678107  0.89450709  0.05167825    -0.02300
C2446       C  0.99766603  0.91045426  0.03273396     0.07400
C2447       C  0.97941541  0.89376257  0.01379699    -0.02400
C2448       C  0.98104828  0.86148085  0.01315618    -0.02400
C2449       C  0.00039236  0.84545651  0.03186629     0.07500
C2450       C  0.51810914  0.86214464  0.05128979    -0.02600
Br2451     Br  0.54275370  0.84087772  0.07871490    -0.01200
Br2452     Br  0.53948138  0.91686568  0.07968335    -0.01200
Br2453     Br  0.95764038  0.83939368  0.98551613    -0.01200
Br2454     Br  0.95263068  0.91493270  0.98796303    -0.01200
C2455       C  0.97986271  0.64425987  0.05264546    -0.02300
C2456       C  0.99783334  0.66040277  0.03302592     0.07400
C2457       C  0.51439606  0.64406036  0.01267282    -0.02400
C2458       C  0.51356439  0.61176641  0.01227324    -0.02400
C2459       C  0.99596690  0.59552095  0.03209975     0.07500
C2460       C  0.97886754  0.61191910  0.05214062    -0.02600
Br2461     Br  0.95512450  0.59023060  0.07985356    -0.01200
Br2462     Br  0.95761443  0.66629807  0.08111147    -0.01200
Br2463     Br  0.53534086  0.58996640  0.98343173    -0.01200
Br2464     Br  0.53676845  0.66592844  0.98410471    -0.01200
C2465       C  0.85821884  0.73301655  0.50869189    -0.02300
C2466       C  0.84137627  0.75027389  0.52826325     0.07400
C2467       C  0.85719807  0.76720236  0.54878817    -0.02400
C2468       C  0.88951679  0.76650598  0.54996864    -0.02400
C2469       C  0.90634102  0.74887090  0.53063853     0.07500
C2470       C  0.89053735  0.73231511  0.50987098    -0.02600
Br2471     Br  0.91323128  0.71024370  0.48183718    -0.01200
Br2472     Br  0.83708717  0.71189356  0.47908999    -0.01200
Br2473     Br  0.91064503  0.78887100  0.57886360    -0.01200
Br2474     Br  0.83461033  0.79048850  0.57611062    -0.01200
C2475       C  0.60671992  0.76490476  0.50849665    -0.02300
C2476       C  0.59142592  0.74939857  0.53033809     0.07400
C2477       C  0.60873350  0.73497513  0.55154594    -0.02400
C2478       C  0.64101549  0.73602715  0.55091987    -0.02400
C2479       C  0.65630655  0.75097565  0.52880669     0.07500
C2480       C  0.63902529  0.76570138  0.50773820    -0.02600
Br2481     Br  0.65946886  0.78610201  0.47717368    -0.01200
Br2482     Br  0.58351008  0.78383947  0.47868503    -0.01200
Br2483     Br  0.66426338  0.71876639  0.58151187    -0.01200
Br2484     Br  0.58833495  0.71491352  0.58228600    -0.01200
C2485       C  0.85812678  0.51751806  0.51236153    -0.02300
C2486       C  0.84160697  0.00171961  0.53266895     0.07400
C2487       C  0.85774064  0.98610578  0.55396473    -0.02400
C2488       C  0.89005380  0.98604416  0.55422664    -0.02400
C2489       C  0.90650683  0.00201237  0.53344447     0.07500
C2490       C  0.89046470  0.51765075  0.51269554    -0.02600
Br2491     Br  0.91252942  0.53789064  0.48299632    -0.01200
Br2492     Br  0.83643986  0.53808613  0.48253029    -0.01200
Br2493     Br  0.91174167  0.96474591  0.58364459    -0.01200
Br2494     Br  0.83561293  0.96600560  0.58368043    -0.01200
C2495       C  0.60800494  0.01916667  0.51197767    -0.02300
C2496       C  0.59152164  0.99765545  0.52824660     0.07400
C2497       C  0.60800084  0.47818322  0.54612089    -0.02400
C2498       C  0.64026722  0.47849363  0.54658050    -0.02400
C2499       C  0.65665047  0.99717217  0.52814066     0.07500
C2500       C  0.64034779  0.01840178  0.51140259    -0.02600
Br2501     Br  0.66212451  0.04466717  0.48561513    -0.01200
Br2502     Br  0.58656390  0.04857801  0.48881320    -0.01200
Br2503     Br  0.66189211  0.45445077  0.57413529    -0.01200
Br2504     Br  0.58632934  0.45123615  0.57117536    -0.01200
C2505       C  0.85715464  0.77015429  0.38861523    -0.02300
C2506       C  0.84043023  0.74264327  0.39341126     0.07400
C2507       C  0.85704348  0.71527571  0.39950934    -0.02400
C2508       C  0.88938209  0.71536907  0.40041298    -0.02400
C2509       C  0.90614054  0.74271411  0.39478308     0.07500
C2510       C  0.88951091  0.77003909  0.38873843    -0.02600
Br2511     Br  0.91002821  0.80819632  0.37932525    -0.01200
Br2512     Br  0.83682017  0.80915383  0.38156761    -0.01200
Br2513     Br  0.90961917  0.67697569  0.41019354    -0.01200
Br2514     Br  0.83652292  0.67668077  0.40784311    -0.01200
C2515       C  0.60797410  0.72464831  0.41451854    -0.02300
C2516       C  0.59102917  0.73982669  0.39356756     0.07400
C2517       C  0.60628543  0.75405162  0.37111927    -0.02400
C2518       C  0.63847762  0.75432553  0.37023630    -0.02400
C2519       C  0.65552457  0.73962546  0.39143197     0.07500
C2520       C  0.64018263  0.72436171  0.41337324    -0.02600
Br2521     Br  0.66307135  0.70416218  0.44269892    -0.01200
Br2522     Br  0.58715001  0.70522635  0.44541561    -0.01200
Br2523     Br  0.65905286  0.77363371  0.33917959    -0.01200
Br2524     Br  0.58305917  0.77131039  0.34051067    -0.01200
C2525       C  0.88841273  0.51494041  0.37316275    -0.02300
C2526       C  0.90465670  0.49831235  0.39370738     0.07400
C2527       C  0.88830749  0.98172664  0.41416527    -0.02400
C2528       C  0.85599214  0.98162996  0.41404455    -0.02400
C2529       C  0.83991203  0.49835935  0.39354013    -0.00500
C2530       C  0.85618963  0.51521060  0.37323084    -0.02600
Br2531     Br  0.83446933  0.53776992  0.34457017    -0.01200
Br2532     Br  0.91023075  0.53618331  0.34387703    -0.01200
Br2533     Br  0.83416817  0.95911883  0.44254006    -0.01200
Br2534     Br  0.91023326  0.96014176  0.44326702    -0.01200
C2535       C  0.60601690  0.53398630  0.38894543    -0.02300
C2536       C  0.58944238  0.50835344  0.39917842     0.07400
C2537       C  0.60584195  0.98410103  0.41088003    -0.02400
C2538       C  0.63806675  0.98287200  0.40899209    -0.02400
C2539       C  0.65489027  0.50705702  0.39721736     0.07500
C2540       C  0.63840009  0.53338670  0.38805220    -0.02600
Br2541     Br  0.65927877  0.56902876  0.37319257    -0.01200
Br2542     Br  0.58516980  0.57072838  0.37621077    -0.01200
Br2543     Br  0.65863176  0.94711612  0.42425542    -0.01200
Br2544     Br  0.58495584  0.95308761  0.43281109    -0.01200
C2545       C  0.77474740  0.75846193  0.26445132    -0.02300
C2546       C  0.75329789  0.74215548  0.24816276     0.07400
C2547       C  0.73141793  0.72323489  0.26158963    -0.02400
C2548       C  0.72973169  0.72233679  0.29093123    -0.02400
C2549       C  0.75114427  0.73872902  0.30709335     0.07500
C2550       C  0.77440885  0.75568472  0.29367383    -0.02600
Br2551     Br  0.80719660  0.77360150  0.31520301    -0.01200
Br2552     Br  0.80341159  0.78651023  0.24728516    -0.01200
Br2553     Br  0.69707491  0.69982034  0.30880029    -0.01200
Br2554     Br  0.70459147  0.69711993  0.24009019    -0.01200
C2555       C  0.74411893  0.88914960  0.19000682    -0.02300
C2556       C  0.75833560  0.90566945  0.16823197     0.07400
C2557       C  0.77317010  0.88953749  0.14662927    -0.02400
C2558       C  0.77244022  0.85717000  0.14608324    -0.02400
C2559       C  0.75718521  0.84069876  0.16731615     0.07500
C2560       C  0.74367720  0.85677816  0.18961499    -0.02600
Br2561     Br  0.72633758  0.83434548  0.22056367    -0.01200
Br2562     Br  0.72687771  0.91085959  0.22130088    -0.01200
Br2563     Br  0.79148266  0.83547256  0.11562220    -0.01200
Br2564     Br  0.79382539  0.91173139  0.11726903    -0.01200
C2565       C  0.76837737  0.60787026  0.18581737    -0.02300
C2566       C  0.75234252  0.59076264  0.16560453     0.07400
C2567       C  0.73602419  0.60625603  0.14433166    -0.02400
C2568       C  0.73556444  0.63864196  0.14342366    -0.02400
C2569       C  0.75162306  0.65572690  0.16364982     0.07500
C2570       C  0.76805938  0.64018279  0.18482363    -0.02600
Br2571     Br  0.78931747  0.66309143  0.21333629    -0.01200
Br2572     Br  0.78991501  0.58712347  0.21567161    -0.01200
Br2573     Br  0.71445329  0.65950055  0.11345788    -0.01200
Br2574     Br  0.71598874  0.58315835  0.11526705    -0.01200
C2575       C  0.73252516  0.52055193  0.26466353    -0.02300
C2576       C  0.75387522  0.50105018  0.25132813     0.07400
C2577       C  0.77399072  0.98340529  0.26767272    -0.02400
C2578       C  0.77287728  0.98503450  0.29699706    -0.02400
C2579       C  0.75084745  0.50336886  0.31031199     0.07500
C2580       C  0.73081187  0.52140086  0.29396597    -0.02600
Br2581     Br  0.69990120  0.54637777  0.31148259    -0.01200
Br2582     Br  0.70624575  0.54740585  0.24305866    -0.01200
Br2583     Br  0.80281597  0.96264918  0.31882372    -0.01200
Br2584     Br  0.80250948  0.95542616  0.25029664    -0.01200
C2585       C  0.01697380  0.72112185  0.29571817    -0.02300
C2586       C  0.99861590  0.74170501  0.31120072     0.07400
C2587       C  0.48043739  0.76366164  0.29690198    -0.02400
C2588       C  0.48085177  0.76524319  0.26765019    -0.02400
C2589       C  0.99932863  0.74489526  0.25229046     0.07500
C2590       C  0.01714373  0.72261262  0.26636219    -0.02600
Br2591     Br  0.04084951  0.69310172  0.24545319    -0.01200
Br2592     Br  0.04341647  0.69187745  0.31435350    -0.01200
Br2593     Br  0.45683422  0.79638425  0.24873372    -0.01200
Br2594     Br  0.45389990  0.79144000  0.31686932    -0.01200
C2595       C  0.98111682  0.85786203  0.14903766    -0.02300
C2596       C  0.49890489  0.84199568  0.16911424     0.07400
C2597       C  0.51604531  0.85880997  0.18878631    -0.02400
C2598       C  0.51519551  0.89115269  0.18857512    -0.02400
C2599       C  0.49743414  0.90702071  0.16852917     0.07500
C2600       C  0.98028901  0.89023602  0.14881949    -0.02600
Br2601     Br  0.95672205  0.91148240  0.12058117    -0.01200
Br2602     Br  0.95930157  0.83540894  0.12057596    -0.01200
Br2603     Br  0.53703421  0.91364225  0.21698004    -0.01200
Br2604     Br  0.53973077  0.83763589  0.21696482    -0.01200
C2605       C  0.51538689  0.60782658  0.14783896    -0.02300
C2606       C  0.49835013  0.59204500  0.16837382     0.07400
C2607       C  0.98192591  0.60882880  0.18854138    -0.02400
C2608       C  0.98275012  0.64114973  0.18832755    -0.02400
C2609       C  0.50003529  0.65693913  0.16796117     0.07500
C2610       C  0.51648635  0.64015478  0.14780595    -0.02600
Br2611     Br  0.53944160  0.66136689  0.11926513    -0.01200
Br2612     Br  0.53554944  0.58529073  0.11847468    -0.01200
Br2613     Br  0.96136076  0.66366757  0.21699394    -0.01200
Br2614     Br  0.95921045  0.58762943  0.21727603    -0.01200
C2615       C  0.47881601  0.98145614  0.29700430    -0.02300
C2616       C  0.99699496  0.50291824  0.31143440     0.07400
C2617       C  0.01565557  0.52324940  0.29597299    -0.02400
C2618       C  0.01634690  0.52168382  0.26666795    -0.02400
C2619       C  0.99833018  0.49983306  0.25249509     0.07500
C2620       C  0.47992072  0.97958176  0.26771866    -0.02600
Br2621     Br  0.45711218  0.94781647  0.24881728    -0.01200
Br2622     Br  0.45079982  0.95512910  0.31711810    -0.01200
Br2623     Br  0.04145247  0.55034890  0.24601456    -0.01200
Br2624     Br  0.04124109  0.55285929  0.31458264    -0.01200
loop_ 
_geom_bond_atom_site_label_1 
_geom_bond_atom_site_label_2 
_geom_bond_distance 
_geom_bond_site_symmetry_2 
_ccdc_geom_bond_type 
O1          V665   1.899       .  S
O1         C1979   1.264   1_455  A
O2            V9   1.897   1_545  S
O2         C1324   1.262   1_455  A
O3            V9   1.899   1_545  S
O3           C13   1.264   1_455  A
O4          V665   1.900       .  S
O4           C14   1.264   1_455  A
O5          V666   1.906       .  S
O5         C1326   1.266       .  A
O6           V10   1.902   1_545  S
O6         C1325   1.265       .  A
O7          V666   1.898       .  S
O7          C668   1.265       .  A
O8           V10   1.899       .  S
O8           C11   1.264       .  A
V9          O657   1.900       .  S
V9          O660   1.900       .  S
V9         V1322   2.088   1_455  T
V10         O661   1.906       .  S
V10         O663   1.899   1_565  S
V10        V1321   2.088       .  T
C11        O1969   1.264       .  A
C11         C651   1.481       .  S
C12        O1314   1.262       .  A
C12         O663   1.265       .  A
C12         C835   1.463       .  S
C13        O1318   1.265       .  A
C13         C638   1.480       .  S
C14        O1317   1.266       .  A
C14         C631   1.483       .  S
O15          V23   1.899       .  S
O15        C1337   1.264   1_455  A
O16          V23   1.898       .  S
O16        C1338   1.263       .  A
O17          V23   1.905       .  S
O17          C27   1.266   1_455  A
O18          V23   1.905       .  S
O18          C28   1.265       .  A
O19          V24   1.897       .  S
O19        C1340   1.264       .  A
O20          V24   1.901       .  S
O20        C1339   1.264       .  A
O21          V24   1.894       .  S
O21          C26   1.263       .  A
O22          V24   1.895       .  S
O22          C25   1.263       .  A
V23        V1336   2.088   1_455  T
V24        V1335   2.088       .  T
C25        O1327   1.264       .  A
C25         C621   1.477       .  S
C26        O1328   1.263       .  A
C26         C195   1.461       .  S
C27        O1332   1.264       .  A
C27         C628   1.484       .  S
C28        O1331   1.264   1_455  A
C28         C641   1.480       .  S
O29         V693   1.898       .  S
O29         C695   1.264       .  A
O30          V37   1.897       .  S
O30          C40   1.264       .  A
O31          V37   1.905       .  S
O31          C41   1.266       .  A
O32         V693   1.904   1_545  S
O32          C42   1.265       .  A
O33         V694   1.900   1_545  S
O33          C42   1.264       .  A
O34          V38   1.906       .  S
O34          C41   1.265       .  A
O35         V694   1.905       .  S
O35         C696   1.266       .  A
O36          V38   1.905       .  S
O36          C39   1.266       .  A
V37         O685   1.897       .  S
V37         O688   1.905       .  S
V37          V38   2.087       .  T
V38         O689   1.900       .  S
V38         O691   1.905       .  S
C39         O685   1.264       .  A
C39        C1264   1.486       .  S
C40         O691   1.264       .  A
C40         C209   1.467       .  S
C41         C588   1.484       .  S
C42         C598   1.481       .  S
O43          V51   1.897       .  S
O43          C53   1.263       .  A
O44          V51   1.899       .  S
O44          C54   1.262       .  A
O45          V51   1.910       .  S
O45          C55   1.267       .  A
O46          V51   1.909       .  S
O46          C56   1.267       .  A
O47          V52   1.901       .  S
O47          C56   1.263       .  A
O48          V52   1.896       .  S
O48          C55   1.263       .  A
O49          V52   1.901       .  S
O49          C54   1.265       .  A
O50          V52   1.903       .  S
O50          C53   1.266       .  A
V51          V52   2.087       .  T
C53         C578   1.486       .  S
C54         C224   1.466       .  S
C55         C601   1.482       .  S
C56         C591   1.483       .  S
O57          V65   1.909       .  S
O57          C67   1.267       .  A
O58        V1377   1.903       .  S
O58        C1380   1.264       .  A
O59        V1377   1.901   1_455  S
O59          C69   1.264       .  A
O60          V65   1.898       .  S
O60          C70   1.264       .  A
O61          V66   1.902       .  S
O61         C726   1.264       .  A
O62        V1378   1.900   1_455  S
O62         C725   1.266       .  A
O63          V66   1.893       .  S
O63         C724   1.262       .  A
O64        V1378   1.893       .  S
O64        C2035   1.262       .  A
V65        O1370   1.903       .  S
V65        O1371   1.901       .  S
V65         V722   2.085   1_545  T
V66        O1374   1.900       .  S
V66        O1376   1.893       .  S
V66         V721   2.085       .  T
C67        O2032   1.262   1_545  A
C67         C648   1.487       .  S
C68        O1370   1.264       .  A
C68         O719   1.262   1_545  A
C68         C126   1.463       .  S
C69         O718   1.266   1_545  A
C69         C568   1.498       .  S
C70         O717   1.265   1_545  A
C70         C558   1.479   1_545  S
O71          V79   1.890       .  S
O71          C81   1.262       .  A
O72        V1391   1.889   1_455  S
O72        C1394   1.260   1_455  A
O73        V1391   1.898   1_455  S
O73          C83   1.264       .  A
O74          V79   1.902       .  S
O74          C84   1.265       .  A
O75          V80   1.890       .  S
O75          C84   1.261       .  A
O76        V1392   1.893   1_455  S
O76          C83   1.262       .  A
O77          V80   1.911       .  S
O77          C82   1.267       .  A
O78        V1392   1.907       .  S
O78        C1393   1.266       .  A
V79        O1384   1.889       .  S
V79        O1385   1.898       .  S
V79          V80   2.083       .  T
V80        O1388   1.893       .  S
V80        O1390   1.907       .  S
C81        O1390   1.266       .  A
C81         C618   1.485       .  S
C82        O1384   1.260       .  A
C82         C139   1.466       .  S
C83         C548   1.471       .  S
C84         C541   1.505       .  S
O85          V93   1.908       .  S
O85          C95   1.267       .  A
O86          V93   1.901       .  S
O86          C96   1.263       .  A
O87          V93   1.897       .  S
O87          C97   1.264       .  A
O88          V93   1.903       .  S
O88          C98   1.264       .  A
O89          V94   1.903       .  S
O89         C754   1.265       .  A
O90          V94   1.900       .  S
O90         C753   1.264       .  A
O91          V94   1.898       .  S
O91         C752   1.265       .  A
O92          V94   1.897       .  S
O92         C751   1.263       .  A
V93         V750   2.084   1_545  T
V94         V749   2.084       .  T
C95         O748   1.263   1_545  A
C95         C611   1.485       .  S
C96         O747   1.265   1_545  A
C96         C154   1.465       .  S
C97         O746   1.264   1_545  A
C97         C561   1.478   1_545  S
C98         O745   1.265   1_545  A
C98         C571   1.502       .  S
O99         V107   1.898       .  S
O99         C109   1.264       .  A
O100        V107   1.894       .  S
O100        C110   1.262       .  A
O101        V107   1.897       .  S
O101        C111   1.263       .  A
O102        V107   1.899       .  S
O102        C112   1.265       .  A
O103        V108   1.894       .  S
O103        C112   1.263       .  A
O104        V108   1.892       .  S
O104        C111   1.261       .  A
O105        V108   1.909       .  S
O105        C110   1.267       .  A
O106        V108   1.907       .  S
O106        C109   1.266       .  A
V107        V108   2.082       .  T
C109        C581   1.482       .  S
C110        C165   1.468       .  S
C111        C538   1.503       .  S
C112        C551   1.475       .  S
O113        V121   1.908   1_455  S
O113        C779   1.266   1_545  A
O114       V1433   1.905       .  S
O114        C780   1.266       .  A
O115        V121   1.903   1_455  S
O115       C2093   1.265   1_545  A
O116       V1433   1.902       .  S
O116        C126   1.264       .  A
O117       V1434   1.894       .  S
O117       C2094   1.263       .  A
O118        V122   1.902       .  S
O118        C125   1.264       .  A
O119        V122   1.903       .  S
O119        C124   1.265       .  A
O120       V1434   1.900   1_455  S
O120        C123   1.265       .  A
V121       O1426   1.905       .  S
V121       O1428   1.902       .  S
V121       V2090   2.087   1_545  T
V122       O1429   1.894       .  S
V122       O1432   1.900       .  S
V122       V2089   2.088       .  T
C123        O769   1.266       .  A
C123        C528   1.488       .  S
C124        O770   1.266       .  A
C124        C521   1.485       .  S
C125       O2083   1.265       .  A
C125        C292   1.470       .  S
C126       O2085   1.263   1_545  A
O127        V135   1.902       .  S
O127        C137   1.264       .  A
O128       V1447   1.900   1_455  S
O128        C138   1.264       .  A
O129        V135   1.899       .  S
O129        C139   1.265       .  A
O130       V1447   1.904       .  S
O130       C1452   1.265       .  A
O131       V1448   1.899       .  S
O131        C140   1.264       .  A
O132        V136   1.902       .  S
O132       C1451   1.262       .  A
O133        V136   1.908   1_455  S
O133        C138   1.266       .  A
O134       V1448   1.909       .  S
O134        C137   1.267       .  A
V135       O1440   1.900       .  S
V135       O1442   1.904       .  S
V135       V1448   2.088       .  T
V136       O1443   1.899       .  S
V136       O1446   1.909       .  S
V136       V1447   2.088       .  T
C137        C501   1.486       .  S
C138        C508   1.484       .  S
C139       O1444   1.262       .  A
C140       O1442   1.265       .  A
C140        C306   1.468       .  S
O141        V149   1.904       .  S
O141        C807   1.265       .  A
O142        V149   1.903       .  S
O142        C808   1.265   1_545  A
O143        V149   1.900       .  S
O143        C809   1.266   1_545  A
O144        V149   1.901       .  S
O144        C154   1.265       .  A
O145        V150   1.898       .  S
O145        C810   1.262       .  A
O146        V150   1.902       .  S
O146        C153   1.262       .  A
O147        V150   1.902       .  S
O147        C152   1.265       .  A
O148        V150   1.907       .  S
O148        C151   1.266       .  A
V149        V806   2.087   1_545  T
V150        V805   2.088       .  T
C151        O797   1.265       .  A
C151        C518   1.486       .  S
C152        O798   1.265       .  A
C152        C531   1.485       .  S
C153        O799   1.266       .  A
C153        C320   1.468       .  S
C154        O801   1.262   1_545  A
O155        V163   1.902       .  S
O155        C165   1.263       .  A
O156        V163   1.899       .  S
O156        C166   1.264       .  A
O157        V163   1.903       .  S
O157        C167   1.265       .  A
O158        V163   1.907       .  S
O158        C168   1.266       .  A
O159        V164   1.906       .  S
O159        C168   1.266       .  A
O160        V164   1.904       .  S
O160        C167   1.265       .  A
O161        V164   1.904       .  S
O161        C166   1.265       .  A
O162        V164   1.902       .  S
O162        C165   1.265       .  A
V163        V164   2.088       .  T
C166        C334   1.469       .  S
C167        C511   1.483       .  S
C168        C498   1.486       .  S
O169        V833   1.899       .  S
O169        C835   1.262       .  A
O170        V177   1.902   1_556  S
O170        C180   1.263       .  A
O171        V177   1.902       .  S
O171        C181   1.265       .  A
O172        V833   1.905       .  S
O172        C182   1.265       .  A
O173        V834   1.901       .  S
O173       C1494   1.264   1_455  A
O174        V178   1.899       .  S
O174       C1493   1.264   1_455  A
O175        V834   1.898   1_556  S
O175       C2148   1.264   1_455  A
O176        V178   1.897       .  S
O176       C1491   1.265   1_455  A
V177        O825   1.899       .  S
V177        O828   1.905       .  S
V177       V1490   2.088       .  T
V178        O829   1.900       .  S
V178        O831   1.900   1_554  S
V178       V1489   2.088   1_455  T
C179        O825   1.262       .  A
C179       O1488   1.265       .  A
C179        C668   1.463       .  S
C180       O2143   1.265       .  A
C180        C892   1.467       .  S
C181       O1486   1.264       .  A
C181        C478   1.483       .  S
C182       O1485   1.264       .  A
C182        C491   1.482       .  S
O183        V191   1.903       .  S
O183       C1505   1.266   1_455  A
O184        V191   1.910       .  S
O184       C1506   1.267       .  A
O185        V191   1.898       .  S
O185       C1507   1.263       .  A
O186        V191   1.903   1_556  S
O186       C1508   1.265   1_455  A
O187        V192   1.900   1_556  S
O187        C196   1.264       .  A
O188        V192   1.895       .  S
O188        C195   1.263       .  A
O189        V192   1.897       .  S
O189        C194   1.264       .  A
O190        V192   1.895       .  S
O190        C193   1.263       .  A
V191       V1504   2.088   1_455  T
V192       V1503   2.088       .  T
C193       O1495   1.266       .  A
C193        C488   1.478       .  S
C194       O1496   1.267       .  A
C194        C481   1.486       .  S
C195       O1497   1.263       .  A
C196       O1498   1.265       .  A
C196        C250   1.469       .  S
O197        V205   1.899       .  S
O197        C207   1.264       .  A
O198        V861   1.898       .  S
O198        C208   1.263       .  A
O199        V205   1.899       .  S
O199        C865   1.265       .  A
O200        V861   1.903   1_556  S
O200        C210   1.263       .  A
O201        V862   1.899   1_556  S
O201        C866   1.263       .  A
O202        V206   1.903       .  S
O202        C209   1.265       .  A
O203        V206   1.905       .  S
O203        C208   1.265       .  A
O204        V862   1.907       .  S
O204        C207   1.266       .  A
V205        O854   1.898   1_545  S
V205        O856   1.902   1_554  S
V205        V862   2.088       .  T
V206        O857   1.898   1_554  S
V206        O860   1.907       .  S
V206        V861   2.088       .  T
C207        C471   1.485       .  S
C208        C458   1.479       .  S
C209        O855   1.264       .  A
C210        O857   1.265       .  A
C210        C264   1.466       .  S
O211        V219   1.902       .  S
O211        C221   1.265       .  A
O212        V219   1.904       .  S
O212        C222   1.265       .  A
O213        V219   1.904   1_556  S
O213        C223   1.266       .  A
O214        V219   1.901       .  S
O214        C224   1.265       .  A
O215        V220   1.898       .  S
O215        C224   1.262       .  A
O216        V220   1.898   1_556  S
O216        C223   1.262       .  A
O217        V220   1.902       .  S
O217        C222   1.265       .  A
O218        V220   1.901       .  S
O218        C221   1.265       .  A
V219        V220   2.088       .  T
C221        C468   1.484       .  S
C222        C461   1.480       .  S
C223        C278   1.467       .  S
O225        V889   1.900       .  S
O225        C891   1.264       .  A
O226        V233   1.899       .  S
O226        C236   1.265   1_565  A
O227        V233   1.907   1_545  S
O227        C237   1.266       .  A
O228        V889   1.904       .  S
O228        C238   1.265       .  A
O229        V890   1.904       .  S
O229       C1550   1.264   1_455  A
O230        V234   1.902   1_545  S
O230       C1549   1.265   1_455  A
O231        V890   1.902       .  S
O231       C2204   1.264   1_455  A
O232        V234   1.904       .  S
O232       C1547   1.265   1_455  A
V233        O881   1.899       .  S
V233        O884   1.903       .  S
V233       V1546   2.087       .  T
V234        O885   1.904       .  S
V234        O887   1.901   1_565  S
V234       V1545   2.087   1_455  T
C235        O881   1.264       .  A
C235       O1544   1.265       .  A
C235       C1104   1.487       .  S
C236       O2199   1.263       .  A
C236        C836   1.466       .  S
C237       O1542   1.265       .  A
C237        C441   1.485       .  S
C238       O1541   1.264       .  A
C238        C431   1.480       .  S
O239        V247   1.902       .  S
O239        C249   1.265       .  A
O240        V247   1.901       .  S
O240        C250   1.264       .  A
O241        V247   1.897       .  S
O241        C251   1.264       .  A
O242        V247   1.908       .  S
O242        C252   1.266       .  A
O243        V248   1.907       .  S
O243       C1564   1.266   1_455  A
O244        V248   1.905       .  S
O244       C1563   1.265       .  A
O245        V248   1.904       .  S
O245       C1562   1.265   1_455  A
O246        V248   1.905       .  S
O246       C1561   1.266   1_455  A
V247       V1560   2.086       .  T
V248       V1559   2.086   1_455  T
C249       O1558   1.266       .  A
C249        C421   1.494       .  S
C250       O1557   1.265       .  A
C251       O1556   1.265       .  A
C251        C428   1.477       .  S
C252       O1555   1.266       .  A
C252        C438   1.489       .  S
O253        V261   1.903       .  S
O253        C263   1.266       .  A
O254        V917   1.904       .  S
O254        C920   1.264       .  A
O255        V917   1.902       .  S
O255        C265   1.264       .  A
O256        V261   1.901       .  S
O256        C266   1.264       .  A
O257        V262   1.903       .  S
O257        C266   1.266       .  A
O258        V918   1.908       .  S
O258        C265   1.266       .  A
O259        V262   1.896       .  S
O259        C264   1.262       .  A
O260        V918   1.898       .  S
O260        C919   1.264       .  A
V261        O910   1.905       .  S
V261        O911   1.902       .  S
V261        V262   2.087       .  T
V262        O914   1.908       .  S
V262        O916   1.898       .  S
C263        O916   1.264       .  A
C263        C408   1.483       .  S
C264        O910   1.266       .  A
C265        C401   1.483       .  S
C266        C388   1.483       .  S
O267        V275   1.903       .  S
O267        C277   1.265       .  A
O268        V275   1.903       .  S
O268        C278   1.263       .  A
O269        V275   1.904       .  S
O269        C279   1.265       .  A
O270        V275   1.904       .  S
O270        C280   1.265       .  A
O271        V276   1.906       .  S
O271        C280   1.265       .  A
O272        V276   1.899       .  S
O272        C279   1.264       .  A
O273        V276   1.899       .  S
O273        C278   1.265       .  A
O274        V276   1.904       .  S
O274        C277   1.265       .  A
V275        V276   2.087       .  T
C277        C378   1.488       .  S
C279        C391   1.482       .  S
C280        C398   1.483       .  S
O281        V289   1.904       .  S
O281        C291   1.265       .  A
O282       V1601   1.906   1_455  S
O282       C1604   1.266       .  A
O283       V1601   1.894   1_455  S
O283        C293   1.263       .  A
O284        V289   1.895       .  S
O284        C294   1.263       .  A
O285        V290   1.902       .  S
O285        C950   1.266   1_545  A
O286       V1602   1.905   1_455  S
O286        C949   1.266   1_545  A
O287        V290   1.900       .  S
O287        C948   1.264   1_545  A
O288       V1602   1.900       .  S
O288       C2259   1.264   1_545  A
V289       O1594   1.906       .  S
V289       O1595   1.894       .  S
V289        V946   2.083       .  T
V290       O1598   1.905       .  S
V290       O1600   1.900       .  S
V290        V945   2.084   1_545  T
C291       O2256   1.265       .  A
C291        C451   1.482       .  S
C292       O1594   1.266       .  A
C292        O943   1.263       .  A
C293        O942   1.266       .  A
C293        C368   1.495       .  S
C294        O941   1.266       .  A
C294        C358   1.481       .  S
O295        V303   1.898       .  S
O295        C305   1.263       .  A
O296       V1615   1.896       .  S
O296       C1618   1.263       .  A
O297       V1615   1.911   1_455  S
O297        C307   1.267       .  A
O298        V303   1.909       .  S
O298        C308   1.267       .  A
O299        V304   1.897       .  S
O299        C308   1.263       .  A
O300       V1616   1.899   1_455  S
O300        C307   1.263       .  A
O301        V304   1.907       .  S
O301        C306   1.265       .  A
O302       V1616   1.912       .  S
O302       C1617   1.267       .  A
V303       O1608   1.896       .  S
V303       O1609   1.911       .  S
V303        V304   2.087       .  T
V304       O1612   1.899       .  S
V304       O1614   1.912       .  S
C305       O1614   1.267       .  A
C305        C418   1.485       .  S
C306       O1608   1.263       .  A
C307        C348   1.485       .  S
C308        C338   1.487       .  S
O309        V317   1.906       .  S
O309        C319   1.266       .  A
O310        V317   1.908       .  S
O310        C320   1.267       .  A
O311        V317   1.891       .  S
O311        C321   1.262       .  A
O312        V317   1.893       .  S
O312        C322   1.262       .  A
O313        V318   1.906       .  S
O313        C978   1.266   1_545  A
O314        V318   1.906       .  S
O314        C977   1.267   1_545  A
O315        V318   1.894       .  S
O315        C976   1.261   1_545  A
O316        V318   1.894       .  S
O316        C975   1.263   1_545  A
V317        V974   2.082       .  T
V318        V973   2.082   1_545  T
C319        O972   1.263       .  A
C319        C411   1.483       .  S
C320        O971   1.261       .  A
C321        O970   1.267       .  A
C321        C361   1.482       .  S
C322        O969   1.267       .  A
C322        C371   1.495       .  S
O323        V331   1.897       .  S
O323        C333   1.264       .  A
O324        V331   1.898       .  S
O324        C334   1.264       .  A
O325        V331   1.902       .  S
O325        C335   1.264       .  A
O326        V331   1.902       .  S
O326        C336   1.265       .  A
O327        V332   1.908       .  S
O327        C336   1.266       .  A
O328        V332   1.903       .  S
O328        C335   1.266       .  A
O329        V332   1.906       .  S
O329        C334   1.265       .  A
O330        V332   1.909       .  S
O330        C333   1.266       .  A
V331        V332   2.087       .  T
C333        C381   1.485       .  S
C335        C341   1.486       .  S
C336        C351   1.485       .  S
C337        C338   1.414       .  A
C337        C342   1.412       .  A
C337       Br344   1.933       .  S
C338        C339   1.414       .  A
C339        C340   1.409       .  A
C339       Br346   1.934       .  S
C340        C341   1.413       .  A
C340       Br345   1.934       .  S
C341        C342   1.414       .  A
C342       Br343   1.933       .  S
C347        C348   1.414       .  A
C347        C352   1.411       .  A
C347       Br354   1.933       .  S
C348        C349   1.411       .  A
C349        C350   1.411       .  A
C349       Br356   1.931       .  S
C350        C351   1.413       .  A
C350       Br355   1.932       .  S
C351        C352   1.412       .  A
C352       Br353   1.932       .  S
C357        C358   1.413       .  A
C357        C362   1.407       .  A
C357       Br364   1.935       .  S
C358       C1015   1.413       .  A
C359        C360   1.409       .  A
C359       C1014   1.413   1_545  A
C359       Br366   1.933       .  S
C360       C1017   1.413   1_545  A
C360       Br365   1.933       .  S
C361        C362   1.415       .  A
C361       C1016   1.412       .  A
C362       Br363   1.936       .  S
C367        C368   1.417       .  A
C367        C372   1.412       .  A
C367       Br374   1.936       .  S
C368       C1025   1.418       .  A
C369        C370   1.409       .  A
C369       C1024   1.416       .  A
C369       Br376   1.936       .  S
C370       C1027   1.417       .  A
C370       Br375   1.936       .  S
C371        C372   1.416       .  A
C371       C1026   1.419       .  A
C372       Br373   1.936       .  S
C377        C378   1.416       .  A
C377        C382   1.412       .  A
C377       Br384   1.933       .  S
C378        C379   1.413       .  A
C379        C380   1.409       .  A
C379       Br386   1.932       .  S
C380        C381   1.413       .  A
C380       Br385   1.933       .  S
C381        C382   1.412       .  A
C382       Br383   1.932       .  S
C387        C388   1.412       .  A
C387        C392   1.408       .  A
C387       Br394   1.933       .  S
C388        C389   1.413       .  A
C389        C390   1.411       .  A
C389       Br396   1.932       .  S
C390        C391   1.413       .  A
C390       Br395   1.932       .  S
C391        C392   1.411       .  A
C392       Br393   1.934       .  S
C397        C398   1.410       .  A
C397        C402   1.410       .  A
C397       Br404   1.931       .  S
C398        C399   1.413       .  A
C399        C400   1.412       .  A
C399       Br406   1.931       .  S
C400        C401   1.412       .  A
C400       Br405   1.931       .  S
C401        C402   1.411       .  A
C402       Br403   1.931       .  S
C407        C408   1.412       .  A
C407        C412   1.409       .  A
C407       Br414   1.933       .  S
C408       C1065   1.414       .  A
C409        C410   1.410       .  A
C409       C1064   1.414   1_565  A
C409       Br416   1.933       .  S
C410       C1067   1.412       .  A
C410       Br415   1.932       .  S
C411        C412   1.413       .  A
C411       C1066   1.412       .  A
C412       Br413   1.934       .  S
C417        C418   1.409       .  A
C417        C422   1.412       .  A
C417       Br424   1.932       .  S
C418       C1731   1.411       .  A
C419        C420   1.411       .  A
C419       C1730   1.411       .  A
C419       Br426   1.934       .  S
C420       C1733   1.417       .  A
C420       Br425   1.934       .  S
C421        C422   1.419       .  A
C421       C1732   1.417       .  A
C422       Br423   1.933       .  S
C427        C432   1.412       .  A
C427       C1740   1.411       .  A
C427       Br434   1.931       .  S
C428        C429   1.409       .  A
C428       C1739   1.411       .  A
C429        C430   1.407       .  A
C429       Br436   1.932       .  S
C430        C431   1.411       .  A
C430       Br435   1.931       .  S
C431       C1744   1.412       .  A
C432       C1743   1.412       .  A
C432       Br433   1.930       .  S
C437        C442   1.411       .  A
C437       C1750   1.414   1_455  A
C437       Br444   1.931       .  S
C438        C439   1.414       .  A
C438       C1749   1.414       .  A
C439        C440   1.412       .  A
C439       Br446   1.931       .  S
C440        C441   1.412       .  A
C440       Br445   1.932       .  S
C441       C1754   1.411       .  A
C442       C1753   1.411   1_455  A
C442       Br443   1.933       .  S
C447        C448   1.417       .  A
C447        C452   1.410       .  A
C447       Br454   1.934       .  S
C448        C891   1.490       .  S
C448       C2417   1.416       .  A
C449        C450   1.410       .  A
C449       C2416   1.415   1_455  A
C449       Br456   1.933       .  S
C450       C2419   1.411   1_455  A
C450       Br455   1.932       .  S
C451        C452   1.410       .  A
C451       C2418   1.410       .  A
C452       Br453   1.933       .  S
C457        C458   1.411       .  A
C457        C462   1.409       .  A
C457       Br464   1.933       .  S
C458        C459   1.410       .  A
C459        C460   1.409       .  A
C459       Br466   1.932   1_554  S
C460        C461   1.412       .  A
C460       Br465   1.932   1_554  S
C461        C462   1.412       .  A
C462       Br463   1.931       .  S
C467        C468   1.413       .  A
C467        C472   1.410       .  A
C467       Br474   1.934       .  S
C468        C469   1.412       .  A
C469        C470   1.409       .  A
C469       Br476   1.934   1_554  S
C470        C471   1.415       .  A
C470       Br475   1.934   1_554  S
C471        C472   1.412       .  A
C472       Br473   1.932       .  S
C477        C482   1.411       .  A
C477       C1790   1.413   1_455  A
C477       Br484   1.935       .  S
C478        C479   1.412       .  A
C478       C1789   1.413       .  A
C479        C480   1.408       .  A
C479       Br486   1.933   1_554  S
C480        C481   1.413       .  A
C480       Br485   1.933   1_554  S
C481       C1794   1.414       .  A
C482       C1793   1.414       .  A
C482       Br483   1.932       .  S
C487        C488   1.412       .  A
C487        C492   1.410       .  A
C487       Br494   1.934       .  S
C488       C1801   1.410       .  A
C489        C490   1.408       .  A
C489       C1800   1.410   1_455  A
C489       Br496   1.933   1_554  S
C490       C1803   1.412   1_455  A
C490       Br495   1.931   1_554  S
C491        C492   1.413       .  A
C491       C1802   1.412       .  A
C492       Br493   1.932       .  S
C497        C498   1.411       .  A
C497        C502   1.411       .  A
C497       Br504   1.929       .  S
C498        C499   1.412       .  A
C499        C500   1.412       .  A
C499       Br506   1.931       .  S
C500        C501   1.412       .  A
C500       Br505   1.931       .  S
C501        C502   1.412       .  A
C502       Br503   1.930       .  S
C507        C508   1.414       .  A
C507        C512   1.410       .  A
C507       Br514   1.933       .  S
C508        C509   1.412       .  A
C509        C510   1.410       .  A
C509       Br516   1.931       .  S
C510        C511   1.412       .  A
C510       Br515   1.932       .  S
C511        C512   1.412       .  A
C512       Br513   1.932       .  S
C517        C522   1.410       .  A
C517       C1174   1.412       .  A
C517       Br524   1.932       .  S
C518        C519   1.412       .  A
C518       C1173   1.412       .  A
C519        C520   1.411       .  A
C519       Br526   1.931       .  S
C520        C521   1.412       .  A
C520       Br525   1.932       .  S
C521       C1178   1.413       .  A
C522       C1177   1.413       .  A
C522       Br523   1.932       .  S
C527        C528   1.414       .  A
C527        C532   1.413       .  A
C527       Br534   1.931       .  S
C528       C1185   1.412       .  A
C529        C530   1.409       .  A
C529       C1184   1.415       .  A
C529       Br536   1.931       .  S
C530       C1187   1.412       .  A
C530       Br535   1.932       .  S
C531        C532   1.412       .  A
C531       C1186   1.409       .  A
C532       Br533   1.932       .  S
C537        C538   1.422       .  A
C537        C542   1.412       .  A
C537       Br544   1.944       .  S
C538        C539   1.423       .  A
C539        C540   1.411       .  A
C539       Br546   1.947       .  S
C540        C541   1.424       .  A
C540       Br545   1.946       .  S
C541        C542   1.422       .  A
C542       Br543   1.941       .  S
C547        C548   1.409       .  A
C547        C552   1.407       .  A
C547       Br554   1.933       .  S
C548        C549   1.409       .  A
C549        C550   1.405       .  A
C549       Br556   1.933       .  S
C550        C551   1.411       .  A
C550       Br555   1.932       .  S
C551        C552   1.413       .  A
C552       Br553   1.933       .  S
C557        C558   1.411   1_545  A
C557        C562   1.406       .  A
C557       Br564   1.932       .  S
C558       C1215   1.412       .  A
C559        C560   1.410       .  A
C559       C1214   1.412       .  A
C559       Br566   1.932       .  S
C560       C1217   1.413       .  A
C560       Br565   1.933       .  S
C561        C562   1.411   1_565  A
C561       C1216   1.413       .  A
C562       Br563   1.934       .  S
C567        C568   1.418       .  A
C567        C572   1.414       .  A
C567       Br574   1.937       .  S
C568       C1225   1.415   1_545  A
C569        C570   1.410       .  A
C569       C1224   1.415       .  A
C569       Br576   1.939       .  S
C570       C1227   1.420       .  A
C570       Br575   1.937       .  S
C571        C572   1.421       .  A
C571       C1226   1.420   1_545  A
C572       Br573   1.936       .  S
C577        C578   1.413       .  A
C577        C582   1.407       .  A
C577       Br584   1.933       .  S
C578        C579   1.416       .  A
C579        C580   1.410       .  A
C579       Br586   1.933       .  S
C580        C581   1.410       .  A
C580       Br585   1.931       .  S
C581        C582   1.411       .  A
C582       Br583   1.930       .  S
C587        C588   1.412       .  A
C587        C592   1.411       .  A
C587       Br594   1.930       .  S
C588        C589   1.412       .  A
C589        C590   1.411       .  A
C589       Br596   1.931       .  S
C590        C591   1.412       .  A
C590       Br595   1.932       .  S
C591        C592   1.410       .  A
C592       Br593   1.931       .  S
C597        C598   1.411       .  A
C597        C602   1.408       .  A
C597       Br604   1.933       .  S
C598        C599   1.413       .  A
C599        C600   1.411       .  A
C599       Br606   1.932       .  S
C600        C601   1.411       .  A
C600       Br605   1.930       .  S
C601        C602   1.413       .  A
C602       Br603   1.933       .  S
C607        C608   1.415       .  A
C607        C612   1.409       .  A
C607       Br614   1.934       .  S
C608        C695   1.487   1_545  S
C608       C1265   1.413   1_545  A
C609        C610   1.410       .  A
C609       C1264   1.413       .  A
C609       Br616   1.932       .  S
C610       C1267   1.414       .  A
C610       Br615   1.934       .  S
C611        C612   1.410       .  A
C611       C1266   1.414   1_545  A
C612       Br613   1.927       .  S
C617        C618   1.415       .  A
C617        C622   1.410       .  A
C617       Br624   1.933       .  S
C618       C1931   1.417       .  A
C619        C620   1.405       .  A
C619       C1930   1.417       .  A
C619       Br626   1.931       .  S
C620       C1933   1.408       .  A
C620       Br625   1.936       .  S
C621        C622   1.412       .  A
C621       C1932   1.408       .  A
C622       Br623   1.933       .  S
C627        C632   1.411       .  A
C627       C1940   1.414       .  A
C627       Br634   1.933       .  S
C628        C629   1.411   1_655  A
C628       C1939   1.414       .  A
C629        C630   1.409       .  A
C629       Br636   1.932       .  S
C630        C631   1.413   1_455  A
C630       Br635   1.932       .  S
C631       C1944   1.412       .  A
C632       C1943   1.412       .  A
C632       Br633   1.932       .  S
C637        C638   1.413   1_455  A
C637        C642   1.409       .  A
C637       Br644   1.932       .  S
C638       C1951   1.411       .  A
C639        C640   1.408       .  A
C639       C1950   1.411       .  A
C639       Br646   1.933       .  S
C640       C1953   1.413       .  A
C640       Br645   1.933       .  S
C641        C642   1.411       .  A
C641       C1952   1.413   1_455  A
C642       Br643   1.932       .  S
C647        C652   1.409       .  A
C647       C2616   1.416       .  A
C647       Br654   1.934       .  S
C648        C649   1.414       .  A
C648       C2615   1.416   1_545  A
C649        C650   1.409       .  A
C649       Br656   1.928       .  S
C650        C651   1.412   1_545  A
C650       Br655   1.934       .  S
C651       C2620   1.411       .  A
C652       C2619   1.411       .  A
C652       Br653   1.933       .  S
O657       C1323   1.264   1_455  A
O658        V665   1.898       .  S
O658       C1980   1.262   1_455  A
O659        V665   1.899       .  S
O659        C669   1.264   1_455  A
O660        C670   1.264   1_455  A
O661       C1982   1.266       .  A
O662        V666   1.903       .  S
O662       C1981   1.265       .  A
O664        V666   1.899       .  S
O664        C667   1.264       .  A
V665       V1978   2.088   1_455  T
V666       V1977   2.088       .  T
C667       O1313   1.264       .  A
C667       C1307   1.480       .  S
C668       O1970   1.262       .  A
C669       O1974   1.265       .  A
C669       C1294   1.480       .  S
C670       O1973   1.266       .  A
C670       C1287   1.483       .  S
O671        V679   1.899       .  S
O671       C1993   1.264   1_455  A
O672        V679   1.898       .  S
O672       C1994   1.263       .  A
O673        V679   1.905       .  S
O673        C683   1.266   1_455  A
O674        V679   1.905       .  S
O674        C684   1.266       .  A
O675        V680   1.897       .  S
O675       C1996   1.263       .  A
O676        V680   1.900       .  S
O676       C1995   1.264       .  A
O677        V680   1.895       .  S
O677        C682   1.263       .  A
O678        V680   1.895       .  S
O678        C681   1.264       .  A
V679       V1992   2.088   1_455  T
V680       V1991   2.088       .  T
C681       O1983   1.264       .  A
C681       C1277   1.477       .  S
C682       O1984   1.263       .  A
C682        C851   1.461       .  S
C683       O1988   1.264       .  A
C683       C1284   1.484       .  S
C684       O1987   1.263   1_455  A
C684       C1297   1.480       .  S
O686        V693   1.898       .  S
O686        C696   1.262       .  A
O687        V693   1.905       .  S
O687        C697   1.265       .  A
O688        C698   1.265       .  A
O689        C698   1.264       .  A
O690        V694   1.906       .  S
O690        C697   1.265       .  A
O692        V694   1.906       .  S
O692        C695   1.266       .  A
V693        V694   2.087       .  T
C696        C865   1.468   1_565  S
C697       C1244   1.483       .  S
C698       C1254   1.482       .  S
O699        V707   1.897       .  S
O699        C709   1.263       .  A
O700        V707   1.898       .  S
O700        C710   1.262       .  A
O701        V707   1.910       .  S
O701        C711   1.267       .  A
O702        V707   1.908       .  S
O702        C712   1.267       .  A
O703        V708   1.900       .  S
O703        C712   1.263       .  A
O704        V708   1.897       .  S
O704        C711   1.263       .  A
O705        V708   1.902       .  S
O705        C710   1.265       .  A
O706        V708   1.903       .  S
O706        C709   1.266       .  A
V707        V708   2.087       .  T
C709       C1234   1.485       .  S
C710        C880   1.466       .  S
C711       C1257   1.483       .  S
C712       C1247   1.482       .  S
O713        V721   1.907       .  S
O713        C723   1.267       .  A
O714       V2033   1.901       .  S
O714       C2036   1.264       .  A
O715       V2033   1.902   1_455  S
O715        C725   1.264       .  A
O716        V721   1.897       .  S
O716        C726   1.264       .  A
O717        V722   1.903       .  S
O718       V2034   1.900   1_455  S
O719        V722   1.894       .  S
O720       V2034   1.894       .  S
O720       C1379   1.262   1_565  A
V721       O2026   1.901       .  S
V721       O2027   1.902       .  S
V722       O2030   1.900       .  S
V722       O2032   1.894       .  S
C723       O1376   1.262       .  A
C723       C1304   1.486       .  S
C724       O2026   1.264       .  A
C724        C782   1.461       .  S
C725       C1224   1.499       .  S
C726       C1214   1.478       .  S
O727        V735   1.890       .  S
O727        C737   1.262       .  A
O728       V2047   1.889   1_455  S
O728       C2050   1.260   1_455  A
O729       V2047   1.897   1_455  S
O729        C739   1.264       .  A
O730        V735   1.901       .  S
O730        C740   1.264       .  A
O731        V736   1.891       .  S
O731        C740   1.261       .  A
O732       V2048   1.894   1_455  S
O732        C739   1.262       .  A
O733        V736   1.911       .  S
O733        C738   1.267       .  A
O734       V2048   1.907       .  S
O734       C2049   1.266       .  A
V735       O2040   1.889       .  S
V735       O2041   1.897       .  S
V735        V736   2.083       .  T
V736       O2044   1.894       .  S
V736       O2046   1.907       .  S
C737       O2046   1.266       .  A
C737       C1274   1.485       .  S
C738       O2040   1.260       .  A
C738        C795   1.466       .  S
C739       C1204   1.471       .  S
C740       C1197   1.505       .  S
O741        V749   1.907       .  S
O741        C751   1.266       .  A
O742        V749   1.900       .  S
O742        C752   1.262       .  A
O743        V749   1.897       .  S
O743        C753   1.264       .  A
O744        V749   1.903       .  S
O744        C754   1.265       .  A
O745        V750   1.903       .  S
O746        V750   1.901       .  S
O747        V750   1.898       .  S
O748        V750   1.897       .  S
C751       C1267   1.484       .  S
C752        C810   1.464       .  S
C753       C1217   1.478       .  S
C754       C1227   1.502       .  S
O755        V763   1.897       .  S
O755        C765   1.264       .  A
O756        V763   1.893       .  S
O756        C766   1.261       .  A
O757        V763   1.897       .  S
O757        C767   1.263       .  A
O758        V763   1.899       .  S
O758        C768   1.265       .  A
O759        V764   1.894       .  S
O759        C768   1.263       .  A
O760        V764   1.891       .  S
O760        C767   1.261       .  A
O761        V764   1.909       .  S
O761        C766   1.267       .  A
O762        V764   1.907       .  S
O762        C765   1.266       .  A
V763        V764   2.083       .  T
C765       C1237   1.482       .  S
C766        C821   1.467       .  S
C767       C1194   1.504       .  S
C768       C1207   1.474       .  S
O769        V777   1.910   1_455  S
O770       V2089   1.907       .  S
O771        V777   1.904   1_455  S
O771       C1437   1.265       .  A
O772       V2089   1.900       .  S
O772        C782   1.264       .  A
O773       V2090   1.895       .  S
O773       C1438   1.263   1_565  A
O774        V778   1.904       .  S
O774        C781   1.264       .  A
O775        V778   1.901       .  S
O775        C780   1.265   1_565  A
O776       V2090   1.899   1_455  S
O776        C779   1.264       .  A
V777       O2082   1.907       .  S
V777       O2084   1.900       .  S
V777       V1434   2.088       .  T
V778       O2085   1.895       .  S
V778       O2088   1.899       .  S
V778       V1433   2.087   1_565  T
C779       C1184   1.491       .  S
C780       C1177   1.482       .  S
C781       O1427   1.265   1_565  A
C781        C948   1.470       .  S
C782       O1429   1.263       .  A
O783        V791   1.902       .  S
O783        C793   1.264       .  A
O784       V2103   1.900   1_455  S
O784        C794   1.264       .  A
O785        V791   1.898       .  S
O785        C795   1.265       .  A
O786       V2103   1.904       .  S
O786       C2108   1.264       .  A
O787       V2104   1.899       .  S
O787        C796   1.264       .  A
O788        V792   1.902       .  S
O788       C2107   1.262       .  A
O789        V792   1.908   1_455  S
O789        C794   1.266       .  A
O790       V2104   1.909       .  S
O790        C793   1.267       .  A
V791       O2096   1.900       .  S
V791       O2098   1.904       .  S
V791       V2104   2.088       .  T
V792       O2099   1.899       .  S
V792       O2102   1.909       .  S
V792       V2103   2.088       .  T
C793       C1157   1.486       .  S
C794       C1164   1.484       .  S
C795       O2100   1.262       .  A
C796       O2098   1.264       .  A
C796        C962   1.468       .  S
O797        V805   1.906       .  S
O798        V805   1.905       .  S
O799        V805   1.901       .  S
O800        V805   1.900       .  S
O800        C810   1.265       .  A
O801        V806   1.897       .  S
O802        V806   1.903       .  S
O802        C809   1.263       .  A
O803        V806   1.900       .  S
O803        C808   1.265       .  A
O804        V806   1.905       .  S
O804        C807   1.265   1_565  A
C807       C1174   1.483       .  S
C808       C1187   1.488       .  S
C809        C976   1.468       .  S
O811        V819   1.902       .  S
O811        C821   1.263       .  A
O812        V819   1.899       .  S
O812        C822   1.264       .  A
O813        V819   1.903       .  S
O813        C823   1.265       .  A
O814        V819   1.906       .  S
O814        C824   1.266       .  A
O815        V820   1.906       .  S
O815        C824   1.266       .  A
O816        V820   1.904       .  S
O816        C823   1.265       .  A
O817        V820   1.904       .  S
O817        C822   1.265       .  A
O818        V820   1.901       .  S
O818        C821   1.265       .  A
V819        V820   2.088       .  T
C822        C990   1.468       .  S
C823       C1167   1.483       .  S
C824       C1154   1.486       .  S
O826        V833   1.901   1_556  S
O826        C836   1.263       .  A
O827        V833   1.902   1_565  S
O827        C837   1.265       .  A
O828        C838   1.265       .  A
O829       C2150   1.265   1_455  A
O830        V834   1.899   1_565  S
O830       C2149   1.264   1_455  A
O831       C1492   1.265   1_455  A
O832        V834   1.897       .  S
O832       C2147   1.265   1_455  A
V833       V2146   2.088       .  T
V834       V2145   2.088   1_455  T
C835       O2144   1.265       .  A
C836       O1487   1.264       .  A
C837       O2142   1.264       .  A
C837       C1134   1.483       .  S
C838       O2141   1.265       .  A
C838       C1147   1.482       .  S
O839        V847   1.903       .  S
O839       C2161   1.266   1_455  A
O840        V847   1.911       .  S
O840       C2162   1.267       .  A
O841        V847   1.898       .  S
O841       C2163   1.263       .  A
O842        V847   1.903   1_556  S
O842       C2164   1.265   1_455  A
O843        V848   1.901   1_556  S
O843        C852   1.264       .  A
O844        V848   1.896       .  S
O844        C851   1.263       .  A
O845        V848   1.898       .  S
O845        C850   1.264       .  A
O846        V848   1.895       .  S
O846        C849   1.263       .  A
V847       V2160   2.088   1_455  T
V848       V2159   2.088       .  T
C849       O2151   1.266       .  A
C849       C1144   1.479       .  S
C850       O2152   1.267       .  A
C850       C1137   1.486       .  S
C851       O2153   1.263       .  A
C852       O2154   1.265       .  A
C852        C906   1.469       .  S
O853        V861   1.899       .  S
O853        C863   1.264       .  A
O854        C864   1.263       .  A
O855        V861   1.900       .  S
O856        C866   1.265       .  A
O858        V862   1.903       .  S
O858        C865   1.263       .  A
O859        V862   1.905   1_565  S
O859        C864   1.266       .  A
O860        C863   1.266       .  A
C863       C1127   1.485       .  S
C864       C1114   1.479       .  S
C866        C920   1.466       .  S
O867        V875   1.902       .  S
O867        C877   1.265       .  A
O868        V875   1.904       .  S
O868        C878   1.265       .  A
O869        V875   1.904   1_556  S
O869        C879   1.266       .  A
O870        V875   1.901       .  S
O870        C880   1.265       .  A
O871        V876   1.899       .  S
O871        C880   1.262       .  A
O872        V876   1.898   1_556  S
O872        C879   1.263       .  A
O873        V876   1.902       .  S
O873        C878   1.265       .  A
O874        V876   1.901       .  S
O874        C877   1.265       .  A
V875        V876   2.088       .  T
C877       C1124   1.484       .  S
C878       C1117   1.480       .  S
C879        C934   1.468       .  S
O882        V889   1.900       .  S
O882        C892   1.265       .  A
O883        V889   1.907       .  S
O883        C893   1.266       .  A
O884        C894   1.265       .  A
O885       C2206   1.264   1_455  A
O886        V890   1.901       .  S
O886       C2205   1.264   1_455  A
O887       C1548   1.263   1_455  A
O888        V890   1.905       .  S
O888       C2203   1.266   1_455  A
V889       V2202   2.087       .  T
V890       V2201   2.087   1_455  T
C891       O2200   1.266       .  A
C892       O1543   1.264       .  A
C893       O2198   1.264       .  A
C893       C1097   1.485       .  S
C894       O2197   1.264       .  A
C894       C1087   1.480       .  S
O895        V903   1.902       .  S
O895        C905   1.265       .  A
O896        V903   1.901       .  S
O896        C906   1.264       .  A
O897        V903   1.896       .  S
O897        C907   1.264       .  A
O898        V903   1.907       .  S
O898        C908   1.265       .  A
O899        V904   1.907       .  S
O899       C2220   1.266   1_455  A
O900        V904   1.905       .  S
O900       C2219   1.265       .  A
O901        V904   1.904       .  S
O901       C2218   1.265   1_455  A
O902        V904   1.906       .  S
O902       C2217   1.266   1_455  A
V903       V2216   2.086       .  T
V904       V2215   2.086   1_455  T
C905       O2214   1.266       .  A
C905       C1077   1.494       .  S
C906       O2213   1.265       .  A
C907       O2212   1.265       .  A
C907       C1084   1.477       .  S
C908       O2211   1.266       .  A
C908       C1094   1.489       .  S
O909        V917   1.902       .  S
O909        C919   1.265       .  A
O911        C921   1.264       .  A
O912        V917   1.901   1_565  S
O912        C922   1.264       .  A
O913        V918   1.903   1_565  S
O913        C922   1.266       .  A
O914        C921   1.266       .  A
O915        V918   1.896       .  S
O915        C920   1.264       .  A
V917        V918   2.087       .  T
C919       C1064   1.482       .  S
C921       C1057   1.483       .  S
C922       C1044   1.483       .  S
O923        V931   1.903       .  S
O923        C933   1.265       .  A
O924        V931   1.903       .  S
O924        C934   1.263       .  A
O925        V931   1.904       .  S
O925        C935   1.265       .  A
O926        V931   1.904       .  S
O926        C936   1.265       .  A
O927        V932   1.906       .  S
O927        C936   1.265       .  A
O928        V932   1.899       .  S
O928        C935   1.264       .  A
O929        V932   1.900       .  S
O929        C934   1.265       .  A
O930        V932   1.904       .  S
O930        C933   1.265       .  A
V931        V932   2.087       .  T
C933       C1034   1.488       .  S
C935       C1047   1.482       .  S
C936       C1054   1.483       .  S
O937        V945   1.904       .  S
O937        C947   1.265       .  A
O938       V2257   1.907   1_455  S
O938       C2260   1.266       .  A
O939       V2257   1.895   1_455  S
O939        C949   1.264       .  A
O940        V945   1.896       .  S
O940        C950   1.263       .  A
O941        V946   1.903       .  S
O942       V2258   1.905   1_455  S
O943        V946   1.900       .  S
O944       V2258   1.902       .  S
O944       C1603   1.265       .  A
V945       O2250   1.907       .  S
V945       O2251   1.895       .  S
V946       O2254   1.905       .  S
V946       O2256   1.902       .  S
C947       O1600   1.264   1_565  A
C947       C1107   1.481       .  S
C948       O2250   1.266       .  A
C949       C1024   1.492       .  S
C950       C1014   1.482       .  S
O951        V959   1.898       .  S
O951        C961   1.263       .  A
O952       V2271   1.896       .  S
O952       C2274   1.263       .  A
O953       V2271   1.910   1_455  S
O953        C963   1.267       .  A
O954        V959   1.909       .  S
O954        C964   1.267       .  A
O955        V960   1.897       .  S
O955        C964   1.263       .  A
O956       V2272   1.899   1_455  S
O956        C963   1.263       .  A
O957        V960   1.907       .  S
O957        C962   1.265       .  A
O958       V2272   1.912       .  S
O958       C2273   1.267       .  A
V959       O2264   1.896       .  S
V959       O2265   1.910       .  S
V959        V960   2.087       .  T
V960       O2268   1.899       .  S
V960       O2270   1.912       .  S
C961       O2270   1.267       .  A
C961       C1074   1.485       .  S
C962       O2264   1.263       .  A
C963       C1004   1.485       .  S
C964        C994   1.487       .  S
O965        V973   1.906       .  S
O965        C975   1.266       .  A
O966        V973   1.908       .  S
O966        C976   1.267       .  A
O967        V973   1.893       .  S
O967        C977   1.262       .  A
O968        V973   1.895       .  S
O968        C978   1.263       .  A
O969        V974   1.907       .  S
O970        V974   1.908       .  S
O971        V974   1.895       .  S
O972        V974   1.896       .  S
C975       C1067   1.482       .  S
C977       C1017   1.483       .  S
C978       C1027   1.493       .  S
O979        V987   1.897       .  S
O979        C989   1.264       .  A
O980        V987   1.898       .  S
O980        C990   1.264       .  A
O981        V987   1.902       .  S
O981        C991   1.264       .  A
O982        V987   1.902       .  S
O982        C992   1.265       .  A
O983        V988   1.909       .  S
O983        C992   1.266       .  A
O984        V988   1.904       .  S
O984        C991   1.266       .  A
O985        V988   1.906       .  S
O985        C990   1.265       .  A
O986        V988   1.909       .  S
O986        C989   1.266       .  A
V987        V988   2.087       .  T
C989       C1037   1.485       .  S
C991        C997   1.486       .  S
C992       C1007   1.486       .  S
C993        C994   1.414       .  A
C993        C998   1.412       .  A
C993      Br1000   1.933       .  S
C994        C995   1.414       .  A
C995        C996   1.409       .  A
C995      Br1002   1.934       .  S
C996        C997   1.413       .  A
C996      Br1001   1.934       .  S
C997        C998   1.414       .  A
C998       Br999   1.933       .  S
C1003      C1004   1.414       .  A
C1003      C1008   1.412       .  A
C1003     Br1010   1.933       .  S
C1004      C1005   1.411       .  A
C1005      C1006   1.411       .  A
C1005     Br1012   1.931       .  S
C1006      C1007   1.413       .  A
C1006     Br1011   1.932       .  S
C1007      C1008   1.412       .  A
C1008     Br1009   1.932       .  S
C1013      C1014   1.413       .  A
C1013      C1018   1.408       .  A
C1013     Br1020   1.935       .  S
C1015      C1016   1.410       .  A
C1015     Br1022   1.933       .  S
C1016     Br1021   1.932       .  S
C1017      C1018   1.415       .  A
C1018     Br1019   1.936       .  S
C1023      C1024   1.416   1_545  A
C1023      C1028   1.412       .  A
C1023     Br1030   1.935       .  S
C1025      C1026   1.410       .  A
C1025     Br1032   1.938       .  S
C1026     Br1031   1.938       .  S
C1027      C1028   1.416   1_565  A
C1028     Br1029   1.935       .  S
C1033      C1034   1.416       .  A
C1033      C1038   1.412       .  A
C1033     Br1040   1.933       .  S
C1034      C1035   1.413       .  A
C1035      C1036   1.409       .  A
C1035     Br1042   1.932       .  S
C1036      C1037   1.413       .  A
C1036     Br1041   1.934       .  S
C1037      C1038   1.412       .  A
C1038     Br1039   1.932       .  S
C1043      C1044   1.412       .  A
C1043      C1048   1.408       .  A
C1043     Br1050   1.933       .  S
C1044      C1045   1.413       .  A
C1045      C1046   1.411       .  A
C1045     Br1052   1.932       .  S
C1046      C1047   1.412       .  A
C1046     Br1051   1.932       .  S
C1047      C1048   1.411       .  A
C1048     Br1049   1.934       .  S
C1053      C1054   1.410       .  A
C1053      C1058   1.410       .  A
C1053     Br1060   1.931       .  S
C1054      C1055   1.413       .  A
C1055      C1056   1.412       .  A
C1055     Br1062   1.931       .  S
C1056      C1057   1.412       .  A
C1056     Br1061   1.931       .  S
C1057      C1058   1.412       .  A
C1058     Br1059   1.931       .  S
C1063      C1064   1.412       .  A
C1063      C1068   1.408       .  A
C1063     Br1070   1.933       .  S
C1065      C1066   1.410       .  A
C1065     Br1072   1.933       .  S
C1066     Br1071   1.932       .  S
C1067      C1068   1.413   1_565  A
C1068     Br1069   1.934       .  S
C1073      C1074   1.409       .  A
C1073      C1078   1.412       .  A
C1073     Br1080   1.932       .  S
C1074      C2387   1.411       .  A
C1075      C2386   1.411       .  A
C1075      C1076   1.411       .  A
C1075     Br1082   1.934       .  S
C1076      C2389   1.417       .  A
C1076     Br1081   1.934       .  S
C1077      C2388   1.417       .  A
C1077      C1078   1.419       .  A
C1078     Br1079   1.933       .  S
C1083      C2396   1.411       .  A
C1083      C1088   1.412       .  A
C1083     Br1090   1.931       .  S
C1084      C2395   1.411       .  A
C1084      C1085   1.409       .  A
C1085      C1086   1.407       .  A
C1085     Br1092   1.933       .  S
C1086      C1087   1.411       .  A
C1086     Br1091   1.931       .  S
C1087      C2400   1.412       .  A
C1088      C2399   1.412       .  A
C1088     Br1089   1.930       .  S
C1093      C2406   1.414   1_455  A
C1093      C1098   1.411       .  A
C1093     Br1100   1.931       .  S
C1094      C2405   1.414       .  A
C1094      C1095   1.414       .  A
C1095      C1096   1.412       .  A
C1095     Br1102   1.931       .  S
C1096      C1097   1.412       .  A
C1096     Br1101   1.932       .  S
C1097      C2410   1.411       .  A
C1098      C2409   1.411   1_455  A
C1098     Br1099   1.933       .  S
C1103      C1104   1.415   1_545  A
C1103      C1108   1.409       .  A
C1103     Br1110   1.934       .  S
C1104      C1761   1.415       .  A
C1105      C1760   1.416   1_455  A
C1105      C1106   1.411       .  A
C1105     Br1112   1.933       .  S
C1106      C1763   1.410   1_455  A
C1106     Br1111   1.932       .  S
C1107      C1762   1.411       .  A
C1107      C1108   1.410   1_565  A
C1108     Br1109   1.933       .  S
C1113      C1114   1.411       .  A
C1113      C1118   1.409       .  A
C1113     Br1120   1.933       .  S
C1114      C1115   1.411       .  A
C1115      C1116   1.409       .  A
C1115     Br1122   1.932   1_554  S
C1116      C1117   1.412       .  A
C1116     Br1121   1.932   1_554  S
C1117      C1118   1.412       .  A
C1118     Br1119   1.931       .  S
C1123      C1124   1.413       .  A
C1123      C1128   1.410       .  A
C1123     Br1130   1.934       .  S
C1124      C1125   1.412       .  A
C1125      C1126   1.409       .  A
C1125     Br1132   1.934   1_554  S
C1126      C1127   1.414       .  A
C1126     Br1131   1.934   1_554  S
C1127      C1128   1.412       .  A
C1128     Br1129   1.932       .  S
C1133      C2446   1.413   1_455  A
C1133      C1138   1.411       .  A
C1133     Br1140   1.935       .  S
C1134      C2445   1.413       .  A
C1134      C1135   1.412       .  A
C1135      C1136   1.408       .  A
C1135     Br1142   1.933   1_554  S
C1136      C1137   1.413       .  A
C1136     Br1141   1.933   1_554  S
C1137      C2450   1.414       .  A
C1138      C2449   1.414       .  A
C1138     Br1139   1.931       .  S
C1143      C1144   1.412       .  A
C1143      C1148   1.410       .  A
C1143     Br1150   1.934       .  S
C1144      C2457   1.410       .  A
C1145      C2456   1.410   1_455  A
C1145      C1146   1.408       .  A
C1145     Br1152   1.933   1_554  S
C1146      C2459   1.412   1_455  A
C1146     Br1151   1.931   1_554  S
C1147      C2458   1.412       .  A
C1147      C1148   1.413       .  A
C1148     Br1149   1.932       .  S
C1153      C1154   1.412       .  A
C1153      C1158   1.411       .  A
C1153     Br1160   1.929       .  S
C1154      C1155   1.412       .  A
C1155      C1156   1.411       .  A
C1155     Br1162   1.931       .  S
C1156      C1157   1.412       .  A
C1156     Br1161   1.931       .  S
C1157      C1158   1.412       .  A
C1158     Br1159   1.930       .  S
C1163      C1164   1.414       .  A
C1163      C1168   1.411       .  A
C1163     Br1170   1.933       .  S
C1164      C1165   1.412       .  A
C1165      C1166   1.410       .  A
C1165     Br1172   1.931       .  S
C1166      C1167   1.412       .  A
C1166     Br1171   1.933       .  S
C1167      C1168   1.412       .  A
C1168     Br1169   1.932       .  S
C1173      C1178   1.411       .  A
C1173     Br1180   1.932       .  S
C1174      C1175   1.412   1_545  A
C1175      C1176   1.410       .  A
C1175     Br1182   1.931       .  S
C1176      C1177   1.412   1_565  A
C1176     Br1181   1.932       .  S
C1178     Br1179   1.932       .  S
C1183      C1184   1.415   1_545  A
C1183      C1188   1.412       .  A
C1183     Br1190   1.933       .  S
C1185      C1186   1.408       .  A
C1185     Br1192   1.927       .  S
C1186     Br1191   1.928       .  S
C1187      C1188   1.413   1_565  A
C1188     Br1189   1.934       .  S
C1193      C1194   1.422       .  A
C1193      C1198   1.412       .  A
C1193     Br1200   1.944       .  S
C1194      C1195   1.424       .  A
C1195      C1196   1.412       .  A
C1195     Br1202   1.947       .  S
C1196      C1197   1.424       .  A
C1196     Br1201   1.946       .  S
C1197      C1198   1.422       .  A
C1198     Br1199   1.941       .  S
C1203      C1204   1.409       .  A
C1203      C1208   1.407       .  A
C1203     Br1210   1.933       .  S
C1204      C1205   1.409       .  A
C1205      C1206   1.405       .  A
C1205     Br1212   1.933       .  S
C1206      C1207   1.410       .  A
C1206     Br1211   1.932       .  S
C1207      C1208   1.413       .  A
C1208     Br1209   1.933       .  S
C1213      C1214   1.411       .  A
C1213      C1218   1.406       .  A
C1213     Br1220   1.933       .  S
C1215      C1216   1.410       .  A
C1215     Br1222   1.932       .  S
C1216     Br1221   1.933       .  S
C1217      C1218   1.411       .  A
C1218     Br1219   1.934       .  S
C1223      C1224   1.418       .  A
C1223      C1228   1.414       .  A
C1223     Br1230   1.936       .  S
C1225      C1226   1.410       .  A
C1225     Br1232   1.939       .  S
C1226     Br1231   1.937       .  S
C1227      C1228   1.421       .  A
C1228     Br1229   1.936       .  S
C1233      C1234   1.413       .  A
C1233      C1238   1.407       .  A
C1233     Br1240   1.933       .  S
C1234      C1235   1.417       .  A
C1235      C1236   1.410       .  A
C1235     Br1242   1.933       .  S
C1236      C1237   1.410       .  A
C1236     Br1241   1.931       .  S
C1237      C1238   1.411       .  A
C1238     Br1239   1.931       .  S
C1243      C1244   1.412       .  A
C1243      C1248   1.411       .  A
C1243     Br1250   1.930       .  S
C1244      C1245   1.412       .  A
C1245      C1246   1.411       .  A
C1245     Br1252   1.931       .  S
C1246      C1247   1.412       .  A
C1246     Br1251   1.932       .  S
C1247      C1248   1.410       .  A
C1248     Br1249   1.931       .  S
C1253      C1254   1.411       .  A
C1253      C1258   1.408       .  A
C1253     Br1260   1.933       .  S
C1254      C1255   1.413       .  A
C1255      C1256   1.411       .  A
C1255     Br1262   1.932       .  S
C1256      C1257   1.411       .  A
C1256     Br1261   1.930       .  S
C1257      C1258   1.413       .  A
C1258     Br1259   1.933       .  S
C1263      C1264   1.415       .  A
C1263      C1268   1.409       .  A
C1263     Br1270   1.934       .  S
C1265      C1266   1.410       .  A
C1265     Br1272   1.933       .  S
C1266     Br1271   1.934       .  S
C1267      C1268   1.410       .  A
C1268     Br1269   1.927       .  S
C1273      C1274   1.415       .  A
C1273      C1278   1.410       .  A
C1273     Br1280   1.933       .  S
C1274      C2587   1.416       .  A
C1275      C2586   1.416       .  A
C1275      C1276   1.405       .  A
C1275     Br1282   1.931       .  S
C1276      C2589   1.408       .  A
C1276     Br1281   1.936       .  S
C1277      C2588   1.408       .  A
C1277      C1278   1.412       .  A
C1278     Br1279   1.933       .  S
C1283      C2596   1.414       .  A
C1283      C1288   1.411       .  A
C1283     Br1290   1.933       .  S
C1284      C2595   1.414       .  A
C1284      C1285   1.411   1_655  A
C1285      C1286   1.409       .  A
C1285     Br1292   1.932       .  S
C1286      C1287   1.412   1_455  A
C1286     Br1291   1.932       .  S
C1287      C2600   1.412       .  A
C1288      C2599   1.412       .  A
C1288     Br1289   1.932       .  S
C1293      C1294   1.413   1_455  A
C1293      C1298   1.409       .  A
C1293     Br1300   1.932       .  S
C1294      C2607   1.411       .  A
C1295      C2606   1.411       .  A
C1295      C1296   1.409       .  A
C1295     Br1302   1.932       .  S
C1296      C2609   1.413       .  A
C1296     Br1301   1.933       .  S
C1297      C2608   1.413   1_455  A
C1297      C1298   1.411       .  A
C1298     Br1299   1.932       .  S
C1303      C1960   1.416   1_565  A
C1303      C1308   1.409       .  A
C1303     Br1310   1.934       .  S
C1304      C1959   1.416       .  A
C1304      C1305   1.413       .  A
C1305      C1306   1.408       .  A
C1305     Br1312   1.928       .  S
C1306      C1307   1.411       .  A
C1306     Br1311   1.934       .  S
C1307      C1964   1.411       .  A
C1308      C1963   1.411       .  A
C1308     Br1309   1.934       .  S
O1313      V1977   1.899       .  S
O1314      V1321   1.897   1_545  S
O1315      V1321   1.899   1_545  S
O1315      C1325   1.264       .  A
O1316      V1977   1.900       .  S
O1316      C1326   1.264       .  A
O1317      V1978   1.906       .  S
O1318      V1322   1.902   1_545  S
O1319      V1978   1.898       .  S
O1319      C1980   1.265       .  A
O1320      V1322   1.899       .  S
O1320      C1323   1.264       .  A
V1321      O1969   1.900       .  S
V1321      O1972   1.900       .  S
V1322      O1973   1.906       .  S
V1322      O1975   1.899   1_565  S
C1323      C1963   1.481       .  S
C1324      O1975   1.265       .  A
C1324      C2147   1.463       .  S
C1325      C1950   1.480       .  S
C1326      C1943   1.483       .  S
O1327      V1335   1.899       .  S
O1328      V1335   1.898       .  S
O1329      V1335   1.905       .  S
O1329      C1339   1.266       .  A
O1330      V1335   1.905       .  S
O1330      C1340   1.265       .  A
O1331      V1336   1.897       .  S
O1332      V1336   1.901       .  S
O1333      V1336   1.894       .  S
O1333      C1338   1.263   1_655  A
O1334      V1336   1.895       .  S
O1334      C1337   1.263       .  A
C1337      C1933   1.477       .  S
C1338      C1507   1.461       .  S
C1339      C1940   1.484       .  S
C1340      C1953   1.480       .  S
O1341      V2005   1.898       .  S
O1341      C2007   1.264       .  A
O1342      V1349   1.897       .  S
O1342      C1352   1.264       .  A
O1343      V1349   1.905       .  S
O1343      C1353   1.266       .  A
O1344      V2005   1.904   1_545  S
O1344      C1354   1.265       .  A
O1345      V2006   1.900   1_545  S
O1345      C1354   1.264       .  A
O1346      V1350   1.906       .  S
O1346      C1353   1.265       .  A
O1347      V2006   1.905       .  S
O1347      C2008   1.266       .  A
O1348      V1350   1.905       .  S
O1348      C1351   1.266       .  A
V1349      O1997   1.897       .  S
V1349      O2000   1.905       .  S
V1349      V1350   2.087       .  T
V1350      O2001   1.900       .  S
V1350      O2003   1.905       .  S
C1351      O1997   1.264       .  A
C1351      C2576   1.486       .  S
C1352      O2003   1.264       .  A
C1352      C1521   1.467       .  S
C1353      C1900   1.484       .  S
C1354      C1910   1.481       .  S
O1355      V1363   1.897       .  S
O1355      C1365   1.263       .  A
O1356      V1363   1.899       .  S
O1356      C1366   1.262       .  A
O1357      V1363   1.910       .  S
O1357      C1367   1.267       .  A
O1358      V1363   1.909       .  S
O1358      C1368   1.267       .  A
O1359      V1364   1.901       .  S
O1359      C1368   1.263       .  A
O1360      V1364   1.896       .  S
O1360      C1367   1.263       .  A
O1361      V1364   1.901       .  S
O1361      C1366   1.265       .  A
O1362      V1364   1.903       .  S
O1362      C1365   1.266       .  A
V1363      V1364   2.087       .  T
C1365      C1890   1.486       .  S
C1366      C1536   1.466       .  S
C1367      C1913   1.482       .  S
C1368      C1903   1.483       .  S
O1369      V1377   1.909       .  S
O1369      C1379   1.267       .  A
O1371      C1381   1.264       .  A
O1372      V1377   1.898       .  S
O1372      C1382   1.264       .  A
O1373      V1378   1.902       .  S
O1373      C2038   1.264       .  A
O1374      C2037   1.266       .  A
O1375      V1378   1.893       .  S
O1375      C2036   1.262       .  A
V1377      V2034   2.085   1_545  T
V1378      V2033   2.085       .  T
C1379      C1960   1.487       .  S
C1380      O2031   1.262   1_545  A
C1380      C1438   1.463       .  S
C1381      O2030   1.266   1_545  A
C1381      C1880   1.498       .  S
C1382      O2029   1.265   1_545  A
C1382      C1870   1.479   1_545  S
O1383      V1391   1.890       .  S
O1383      C1393   1.262       .  A
O1385      C1395   1.264       .  A
O1386      V1391   1.902       .  S
O1386      C1396   1.265       .  A
O1387      V1392   1.890       .  S
O1387      C1396   1.261       .  A
O1388      C1395   1.262       .  A
O1389      V1392   1.911       .  S
O1389      C1394   1.267       .  A
V1391      V1392   2.083       .  T
C1393      C1930   1.485       .  S
C1394      C1451   1.466       .  S
C1395      C1860   1.471       .  S
C1396      C1853   1.505       .  S
O1397      V1405   1.908       .  S
O1397      C1407   1.267       .  A
O1398      V1405   1.901       .  S
O1398      C1408   1.263       .  A
O1399      V1405   1.897       .  S
O1399      C1409   1.264       .  A
O1400      V1405   1.903       .  S
O1400      C1410   1.264       .  A
O1401      V1406   1.903       .  S
O1401      C2066   1.265       .  A
O1402      V1406   1.900       .  S
O1402      C2065   1.264       .  A
O1403      V1406   1.898       .  S
O1403      C2064   1.265       .  A
O1404      V1406   1.897       .  S
O1404      C2063   1.263       .  A
V1405      V2062   2.084   1_545  T
V1406      V2061   2.084       .  T
C1407      O2060   1.263   1_545  A
C1407      C1923   1.485       .  S
C1408      O2059   1.265   1_545  A
C1408      C1466   1.465       .  S
C1409      O2058   1.264   1_545  A
C1409      C1873   1.478   1_545  S
C1410      O2057   1.265   1_545  A
C1410      C1883   1.502       .  S
O1411      V1419   1.898       .  S
O1411      C1421   1.264       .  A
O1412      V1419   1.894       .  S
O1412      C1422   1.262       .  A
O1413      V1419   1.897       .  S
O1413      C1423   1.263       .  A
O1414      V1419   1.899       .  S
O1414      C1424   1.265       .  A
O1415      V1420   1.894       .  S
O1415      C1424   1.263       .  A
O1416      V1420   1.892       .  S
O1416      C1423   1.261       .  A
O1417      V1420   1.909       .  S
O1417      C1422   1.267       .  A
O1418      V1420   1.907       .  S
O1418      C1421   1.266       .  A
V1419      V1420   2.082       .  T
C1421      C1893   1.482       .  S
C1422      C1477   1.468       .  S
C1423      C1850   1.503       .  S
C1424      C1863   1.475       .  S
O1425      V1433   1.908       .  S
O1425      C2091   1.266   1_545  A
O1426      C2092   1.266       .  A
O1427      V1433   1.903       .  S
O1428      C1438   1.264       .  A
O1430      V1434   1.902   1_455  S
O1430      C1437   1.264       .  A
O1431      V1434   1.903       .  S
O1431      C1436   1.265       .  A
O1432      C1435   1.265       .  A
C1435      O2081   1.266       .  A
C1435      C1840   1.488       .  S
C1436      O2082   1.266       .  A
C1436      C1833   1.485       .  S
C1437      C1604   1.470       .  S
O1439      V1447   1.902       .  S
O1439      C1449   1.264       .  A
O1440      C1450   1.264       .  A
O1441      V1447   1.899       .  S
O1441      C1451   1.265       .  A
O1443      C1452   1.264       .  A
O1444      V1448   1.902       .  S
O1445      V1448   1.908       .  S
O1445      C1450   1.266       .  A
O1446      C1449   1.267       .  A
C1449      C1813   1.486       .  S
C1450      C1820   1.484       .  S
C1452      C1618   1.468       .  S
O1453      V1461   1.904       .  S
O1453      C2119   1.265       .  A
O1454      V1461   1.903       .  S
O1454      C2120   1.265   1_545  A
O1455      V1461   1.900       .  S
O1455      C2121   1.266   1_545  A
O1456      V1461   1.901       .  S
O1456      C1466   1.265       .  A
O1457      V1462   1.898       .  S
O1457      C2122   1.262       .  A
O1458      V1462   1.902       .  S
O1458      C1465   1.262       .  A
O1459      V1462   1.902       .  S
O1459      C1464   1.265       .  A
O1460      V1462   1.907       .  S
O1460      C1463   1.266       .  A
V1461      V2118   2.087   1_545  T
V1462      V2117   2.088       .  T
C1463      O2109   1.265       .  A
C1463      C1830   1.486       .  S
C1464      O2110   1.265       .  A
C1464      C1843   1.485       .  S
C1465      O2111   1.266       .  A
C1465      C1632   1.468       .  S
C1466      O2113   1.262   1_545  A
O1467      V1475   1.902       .  S
O1467      C1477   1.263       .  A
O1468      V1475   1.899       .  S
O1468      C1478   1.264       .  A
O1469      V1475   1.903       .  S
O1469      C1479   1.265       .  A
O1470      V1475   1.907       .  S
O1470      C1480   1.266       .  A
O1471      V1476   1.906       .  S
O1471      C1480   1.266       .  A
O1472      V1476   1.904       .  S
O1472      C1479   1.265       .  A
O1473      V1476   1.904       .  S
O1473      C1478   1.265       .  A
O1474      V1476   1.902       .  S
O1474      C1477   1.265       .  A
V1475      V1476   2.088       .  T
C1478      C1646   1.469       .  S
C1479      C1823   1.483       .  S
C1480      C1810   1.486       .  S
O1481      V2145   1.899       .  S
O1481      C2147   1.262       .  A
O1482      V1489   1.902   1_556  S
O1482      C1492   1.263       .  A
O1483      V1489   1.902       .  S
O1483      C1493   1.265       .  A
O1484      V2145   1.905       .  S
O1484      C1494   1.265       .  A
O1485      V2146   1.901       .  S
O1486      V1490   1.899       .  S
O1487      V2146   1.898   1_556  S
O1488      V1490   1.897       .  S
V1489      O2137   1.899       .  S
V1489      O2140   1.905       .  S
V1490      O2141   1.900       .  S
V1490      O2143   1.900   1_554  S
C1491      O2137   1.262       .  A
C1491      C1980   1.463       .  S
C1492      C2204   1.467       .  S
C1493      C1790   1.483       .  S
C1494      C1803   1.482       .  S
O1495      V1503   1.903       .  S
O1496      V1503   1.910       .  S
O1497      V1503   1.898       .  S
O1498      V1503   1.903   1_556  S
O1499      V1504   1.900   1_556  S
O1499      C1508   1.264       .  A
O1500      V1504   1.895       .  S
O1500      C1507   1.263   1_655  A
O1501      V1504   1.897       .  S
O1501      C1506   1.264   1_655  A
O1502      V1504   1.895       .  S
O1502      C1505   1.263       .  A
C1505      C1800   1.478       .  S
C1506      C1793   1.486       .  S
C1508      C1562   1.469       .  S
O1509      V1517   1.899       .  S
O1509      C1519   1.264       .  A
O1510      V2173   1.898       .  S
O1510      C1520   1.263       .  A
O1511      V1517   1.899       .  S
O1511      C2177   1.265       .  A
O1512      V2173   1.903   1_556  S
O1512      C1522   1.263       .  A
O1513      V2174   1.899   1_556  S
O1513      C2178   1.263       .  A
O1514      V1518   1.903       .  S
O1514      C1521   1.265       .  A
O1515      V1518   1.905       .  S
O1515      C1520   1.265       .  A
O1516      V2174   1.907       .  S
O1516      C1519   1.266       .  A
V1517      O2166   1.898   1_545  S
V1517      O2168   1.902   1_554  S
V1517      V2174   2.088       .  T
V1518      O2169   1.898   1_554  S
V1518      O2172   1.907       .  S
V1518      V2173   2.088       .  T
C1519      C1783   1.485       .  S
C1520      C1770   1.479       .  S
C1521      O2167   1.264       .  A
C1522      O2169   1.265       .  A
C1522      C1576   1.466       .  S
O1523      V1531   1.902       .  S
O1523      C1533   1.265       .  A
O1524      V1531   1.904       .  S
O1524      C1534   1.265       .  A
O1525      V1531   1.904   1_556  S
O1525      C1535   1.266       .  A
O1526      V1531   1.901       .  S
O1526      C1536   1.265       .  A
O1527      V1532   1.898       .  S
O1527      C1536   1.262       .  A
O1528      V1532   1.898   1_556  S
O1528      C1535   1.262       .  A
O1529      V1532   1.902       .  S
O1529      C1534   1.265       .  A
O1530      V1532   1.901       .  S
O1530      C1533   1.265       .  A
V1531      V1532   2.088       .  T
C1533      C1780   1.484       .  S
C1534      C1773   1.480       .  S
C1535      C1590   1.467       .  S
O1537      V2201   1.900       .  S
O1537      C2203   1.264       .  A
O1538      V1545   1.899       .  S
O1538      C1548   1.265   1_565  A
O1539      V1545   1.907   1_545  S
O1539      C1549   1.266       .  A
O1540      V2201   1.904       .  S
O1540      C1550   1.265       .  A
O1541      V2202   1.904       .  S
O1542      V1546   1.902   1_545  S
O1543      V2202   1.902       .  S
O1544      V1546   1.904       .  S
V1545      O2193   1.899       .  S
V1545      O2196   1.903       .  S
V1546      O2197   1.904       .  S
V1546      O2199   1.901   1_565  S
C1547      O2193   1.264       .  A
C1547      C2416   1.487       .  S
C1548      C2148   1.466       .  S
C1549      C1753   1.485       .  S
C1550      C1743   1.480   1_655  S
O1551      V1559   1.902       .  S
O1551      C1561   1.265       .  A
O1552      V1559   1.901       .  S
O1552      C1562   1.264       .  A
O1553      V1559   1.897       .  S
O1553      C1563   1.264   1_655  A
O1554      V1559   1.908       .  S
O1554      C1564   1.266       .  A
O1555      V1560   1.907       .  S
O1556      V1560   1.905       .  S
O1557      V1560   1.904       .  S
O1558      V1560   1.905       .  S
C1561      C1733   1.494       .  S
C1563      C1740   1.477       .  S
C1564      C1750   1.489       .  S
O1565      V1573   1.903       .  S
O1565      C1575   1.266       .  A
O1566      V2229   1.904       .  S
O1566      C2232   1.264       .  A
O1567      V2229   1.902       .  S
O1567      C1577   1.264       .  A
O1568      V1573   1.901       .  S
O1568      C1578   1.264       .  A
O1569      V1574   1.903       .  S
O1569      C1578   1.266       .  A
O1570      V2230   1.908       .  S
O1570      C1577   1.266       .  A
O1571      V1574   1.896       .  S
O1571      C1576   1.262       .  A
O1572      V2230   1.898       .  S
O1572      C2231   1.264       .  A
V1573      O2222   1.905       .  S
V1573      O2223   1.902       .  S
V1573      V1574   2.087       .  T
V1574      O2226   1.908       .  S
V1574      O2228   1.898       .  S
C1575      O2228   1.264       .  A
C1575      C1720   1.483       .  S
C1576      O2222   1.266       .  A
C1577      C1713   1.483       .  S
C1578      C1700   1.483       .  S
O1579      V1587   1.903       .  S
O1579      C1589   1.265       .  A
O1580      V1587   1.903       .  S
O1580      C1590   1.263       .  A
O1581      V1587   1.904       .  S
O1581      C1591   1.265       .  A
O1582      V1587   1.904       .  S
O1582      C1592   1.265       .  A
O1583      V1588   1.906       .  S
O1583      C1592   1.265       .  A
O1584      V1588   1.899       .  S
O1584      C1591   1.264       .  A
O1585      V1588   1.899       .  S
O1585      C1590   1.265       .  A
O1586      V1588   1.904       .  S
O1586      C1589   1.265       .  A
V1587      V1588   2.087       .  T
C1589      C1690   1.488       .  S
C1591      C1703   1.482       .  S
C1592      C1710   1.483       .  S
O1593      V1601   1.904       .  S
O1593      C1603   1.265       .  A
O1595      C1605   1.263       .  A
O1596      V1601   1.895       .  S
O1596      C1606   1.263       .  A
O1597      V1602   1.902       .  S
O1597      C2262   1.266   1_545  A
O1598      C2261   1.266   1_545  A
O1599      V1602   1.900       .  S
O1599      C2260   1.264   1_645  A
V1601      V2258   2.083       .  T
V1602      V2257   2.084   1_545  T
C1603      C1763   1.482       .  S
C1604      O2255   1.263   1_455  A
C1605      O2254   1.266       .  A
C1605      C1680   1.495       .  S
C1606      O2253   1.266       .  A
C1606      C1670   1.481       .  S
O1607      V1615   1.898       .  S
O1607      C1617   1.263       .  A
O1609      C1619   1.267       .  A
O1610      V1615   1.909       .  S
O1610      C1620   1.267       .  A
O1611      V1616   1.897       .  S
O1611      C1620   1.263       .  A
O1612      C1619   1.263       .  A
O1613      V1616   1.907       .  S
O1613      C1618   1.265       .  A
V1615      V1616   2.087       .  T
C1617      C1730   1.485       .  S
C1619      C1660   1.485       .  S
C1620      C1650   1.487       .  S
O1621      V1629   1.906       .  S
O1621      C1631   1.266       .  A
O1622      V1629   1.908       .  S
O1622      C1632   1.267       .  A
O1623      V1629   1.891       .  S
O1623      C1633   1.262       .  A
O1624      V1629   1.893       .  S
O1624      C1634   1.262       .  A
O1625      V1630   1.906       .  S
O1625      C2290   1.266   1_545  A
O1626      V1630   1.906       .  S
O1626      C2289   1.267   1_545  A
O1627      V1630   1.894       .  S
O1627      C2288   1.261   1_545  A
O1628      V1630   1.894       .  S
O1628      C2287   1.263   1_545  A
V1629      V2286   2.082       .  T
V1630      V2285   2.082   1_545  T
C1631      O2284   1.263       .  A
C1631      C1723   1.483       .  S
C1632      O2283   1.261       .  A
C1633      O2282   1.267       .  A
C1633      C1673   1.482       .  S
C1634      O2281   1.267       .  A
C1634      C1683   1.495       .  S
O1635      V1643   1.897       .  S
O1635      C1645   1.264       .  A
O1636      V1643   1.898       .  S
O1636      C1646   1.264       .  A
O1637      V1643   1.902       .  S
O1637      C1647   1.264       .  A
O1638      V1643   1.902       .  S
O1638      C1648   1.265       .  A
O1639      V1644   1.908       .  S
O1639      C1648   1.266       .  A
O1640      V1644   1.903       .  S
O1640      C1647   1.266       .  A
O1641      V1644   1.906       .  S
O1641      C1646   1.265       .  A
O1642      V1644   1.909       .  S
O1642      C1645   1.266       .  A
V1643      V1644   2.087       .  T
C1645      C1693   1.485       .  S
C1647      C1653   1.486       .  S
C1648      C1663   1.485       .  S
C1649      C1650   1.414       .  A
C1649      C1654   1.412       .  A
C1649     Br1656   1.933       .  S
C1650      C1651   1.414       .  A
C1651      C1652   1.409       .  A
C1651     Br1658   1.934       .  S
C1652      C1653   1.413       .  A
C1652     Br1657   1.934       .  S
C1653      C1654   1.414       .  A
C1654     Br1655   1.933       .  S
C1659      C1660   1.414       .  A
C1659      C1664   1.411       .  A
C1659     Br1666   1.933       .  S
C1660      C1661   1.411       .  A
C1661      C1662   1.411       .  A
C1661     Br1668   1.931       .  S
C1662      C1663   1.413       .  A
C1662     Br1667   1.932       .  S
C1663      C1664   1.412       .  A
C1664     Br1665   1.932       .  S
C1669      C1670   1.413       .  A
C1669      C1674   1.407       .  A
C1669     Br1676   1.935       .  S
C1670      C2327   1.413       .  A
C1671      C2326   1.413   1_545  A
C1671      C1672   1.409       .  A
C1671     Br1678   1.933       .  S
C1672      C2329   1.413   1_545  A
C1672     Br1677   1.933       .  S
C1673      C2328   1.412       .  A
C1673      C1674   1.415       .  A
C1674     Br1675   1.936       .  S
C1679      C1680   1.417       .  A
C1679      C1684   1.412       .  A
C1679     Br1686   1.936       .  S
C1680      C2337   1.418       .  A
C1681      C2336   1.416       .  A
C1681      C1682   1.409       .  A
C1681     Br1688   1.936       .  S
C1682      C2339   1.417       .  A
C1682     Br1687   1.936       .  S
C1683      C2338   1.419       .  A
C1683      C1684   1.416       .  A
C1684     Br1685   1.936       .  S
C1689      C1690   1.416       .  A
C1689      C1694   1.412       .  A
C1689     Br1696   1.933       .  S
C1690      C1691   1.413       .  A
C1691      C1692   1.409       .  A
C1691     Br1698   1.932       .  S
C1692      C1693   1.413       .  A
C1692     Br1697   1.933       .  S
C1693      C1694   1.412       .  A
C1694     Br1695   1.932       .  S
C1699      C1700   1.412       .  A
C1699      C1704   1.408       .  A
C1699     Br1706   1.933       .  S
C1700      C1701   1.413       .  A
C1701      C1702   1.411       .  A
C1701     Br1708   1.932       .  S
C1702      C1703   1.413       .  A
C1702     Br1707   1.932       .  S
C1703      C1704   1.411       .  A
C1704     Br1705   1.934       .  S
C1709      C1710   1.410       .  A
C1709      C1714   1.410       .  A
C1709     Br1716   1.931       .  S
C1710      C1711   1.413       .  A
C1711      C1712   1.412       .  A
C1711     Br1718   1.931       .  S
C1712      C1713   1.412       .  A
C1712     Br1717   1.931       .  S
C1713      C1714   1.411       .  A
C1714     Br1715   1.931       .  S
C1719      C1720   1.412       .  A
C1719      C1724   1.409       .  A
C1719     Br1726   1.933       .  S
C1720      C2377   1.414       .  A
C1721      C2376   1.414   1_565  A
C1721      C1722   1.410       .  A
C1721     Br1728   1.933       .  S
C1722      C2379   1.412       .  A
C1722     Br1727   1.932       .  S
C1723      C2378   1.412       .  A
C1723      C1724   1.413       .  A
C1724     Br1725   1.934       .  S
C1729      C1730   1.409   1_455  A
C1729      C1734   1.412       .  A
C1729     Br1736   1.932       .  S
C1731      C1732   1.411       .  A
C1731     Br1738   1.934       .  S
C1732     Br1737   1.934       .  S
C1733      C1734   1.419   1_655  A
C1734     Br1735   1.933       .  S
C1739      C1744   1.412       .  A
C1739     Br1746   1.931       .  S
C1740      C1741   1.409   1_455  A
C1741      C1742   1.407       .  A
C1741     Br1748   1.932       .  S
C1742      C1743   1.411   1_655  A
C1742     Br1747   1.931       .  S
C1744     Br1745   1.930       .  S
C1749      C1754   1.411       .  A
C1749     Br1756   1.931       .  S
C1750      C1751   1.414       .  A
C1751      C1752   1.412       .  A
C1751     Br1758   1.931       .  S
C1752      C1753   1.412       .  A
C1752     Br1757   1.932       .  S
C1754     Br1755   1.933       .  S
C1759      C1760   1.417       .  A
C1759      C1764   1.410       .  A
C1759     Br1766   1.934       .  S
C1760      C2203   1.490       .  S
C1761      C1762   1.410       .  A
C1761     Br1768   1.933       .  S
C1762     Br1767   1.932       .  S
C1763      C1764   1.410       .  A
C1764     Br1765   1.933       .  S
C1769      C1770   1.411       .  A
C1769      C1774   1.409       .  A
C1769     Br1776   1.933       .  S
C1770      C1771   1.410       .  A
C1771      C1772   1.409       .  A
C1771     Br1778   1.932   1_554  S
C1772      C1773   1.412       .  A
C1772     Br1777   1.932   1_554  S
C1773      C1774   1.412       .  A
C1774     Br1775   1.931       .  S
C1779      C1780   1.413       .  A
C1779      C1784   1.410       .  A
C1779     Br1786   1.934       .  S
C1780      C1781   1.412       .  A
C1781      C1782   1.409       .  A
C1781     Br1788   1.934   1_554  S
C1782      C1783   1.415       .  A
C1782     Br1787   1.934   1_554  S
C1783      C1784   1.412       .  A
C1784     Br1785   1.932       .  S
C1789      C1794   1.411       .  A
C1789     Br1796   1.935       .  S
C1790      C1791   1.412       .  A
C1791      C1792   1.408       .  A
C1791     Br1798   1.933   1_554  S
C1792      C1793   1.413   1_655  A
C1792     Br1797   1.933   1_554  S
C1794     Br1795   1.932       .  S
C1799      C1800   1.412       .  A
C1799      C1804   1.410       .  A
C1799     Br1806   1.934       .  S
C1801      C1802   1.408       .  A
C1801     Br1808   1.933   1_554  S
C1802     Br1807   1.931   1_554  S
C1803      C1804   1.413       .  A
C1804     Br1805   1.932       .  S
C1809      C1810   1.411       .  A
C1809      C1814   1.411       .  A
C1809     Br1816   1.929       .  S
C1810      C1811   1.412       .  A
C1811      C1812   1.412       .  A
C1811     Br1818   1.931       .  S
C1812      C1813   1.412       .  A
C1812     Br1817   1.931       .  S
C1813      C1814   1.412       .  A
C1814     Br1815   1.930       .  S
C1819      C1820   1.414       .  A
C1819      C1824   1.410       .  A
C1819     Br1826   1.933       .  S
C1820      C1821   1.412       .  A
C1821      C1822   1.410       .  A
C1821     Br1828   1.931       .  S
C1822      C1823   1.412       .  A
C1822     Br1827   1.932       .  S
C1823      C1824   1.412       .  A
C1824     Br1825   1.932       .  S
C1829      C2486   1.412       .  A
C1829      C1834   1.410       .  A
C1829     Br1836   1.932       .  S
C1830      C2485   1.412       .  A
C1830      C1831   1.412       .  A
C1831      C1832   1.411       .  A
C1831     Br1838   1.931       .  S
C1832      C1833   1.412       .  A
C1832     Br1837   1.932       .  S
C1833      C2490   1.413       .  A
C1834      C2489   1.413       .  A
C1834     Br1835   1.932       .  S
C1839      C1840   1.414       .  A
C1839      C1844   1.413       .  A
C1839     Br1846   1.931       .  S
C1840      C2497   1.412       .  A
C1841      C2496   1.415       .  A
C1841      C1842   1.409       .  A
C1841     Br1848   1.931       .  S
C1842      C2499   1.412       .  A
C1842     Br1847   1.932       .  S
C1843      C2498   1.409       .  A
C1843      C1844   1.412       .  A
C1844     Br1845   1.932       .  S
C1849      C1850   1.422       .  A
C1849      C1854   1.412       .  A
C1849     Br1856   1.944       .  S
C1850      C1851   1.423       .  A
C1851      C1852   1.411       .  A
C1851     Br1858   1.947       .  S
C1852      C1853   1.424       .  A
C1852     Br1857   1.946       .  S
C1853      C1854   1.422       .  A
C1854     Br1855   1.941       .  S
C1859      C1860   1.409       .  A
C1859      C1864   1.407       .  A
C1859     Br1866   1.933       .  S
C1860      C1861   1.409       .  A
C1861      C1862   1.405       .  A
C1861     Br1868   1.933       .  S
C1862      C1863   1.411       .  A
C1862     Br1867   1.932       .  S
C1863      C1864   1.413       .  A
C1864     Br1865   1.933       .  S
C1869      C1870   1.411   1_545  A
C1869      C1874   1.406       .  A
C1869     Br1876   1.932       .  S
C1870      C2527   1.412       .  A
C1871      C2526   1.412       .  A
C1871      C1872   1.410       .  A
C1871     Br1878   1.932       .  S
C1872      C2529   1.413       .  A
C1872     Br1877   1.933       .  S
C1873      C2528   1.413       .  A
C1873      C1874   1.411   1_565  A
C1874     Br1875   1.934       .  S
C1879      C1880   1.418       .  A
C1879      C1884   1.414       .  A
C1879     Br1886   1.937       .  S
C1880      C2537   1.415   1_545  A
C1881      C2536   1.415       .  A
C1881      C1882   1.410       .  A
C1881     Br1888   1.939       .  S
C1882      C2539   1.420       .  A
C1882     Br1887   1.937       .  S
C1883      C2538   1.420   1_545  A
C1883      C1884   1.421       .  A
C1884     Br1885   1.936       .  S
C1889      C1890   1.413       .  A
C1889      C1894   1.407       .  A
C1889     Br1896   1.933       .  S
C1890      C1891   1.416       .  A
C1891      C1892   1.410       .  A
C1891     Br1898   1.933       .  S
C1892      C1893   1.410       .  A
C1892     Br1897   1.931       .  S
C1893      C1894   1.411       .  A
C1894     Br1895   1.930       .  S
C1899      C1900   1.412       .  A
C1899      C1904   1.411       .  A
C1899     Br1906   1.930       .  S
C1900      C1901   1.412       .  A
C1901      C1902   1.411       .  A
C1901     Br1908   1.931       .  S
C1902      C1903   1.412       .  A
C1902     Br1907   1.932       .  S
C1903      C1904   1.410       .  A
C1904     Br1905   1.931       .  S
C1909      C1910   1.411       .  A
C1909      C1914   1.408       .  A
C1909     Br1916   1.933       .  S
C1910      C1911   1.413       .  A
C1911      C1912   1.411       .  A
C1911     Br1918   1.932       .  S
C1912      C1913   1.411       .  A
C1912     Br1917   1.930       .  S
C1913      C1914   1.413       .  A
C1914     Br1915   1.933       .  S
C1919      C1920   1.415       .  A
C1919      C1924   1.409       .  A
C1919     Br1926   1.934       .  S
C1920      C2007   1.487   1_545  S
C1920      C2577   1.413   1_545  A
C1921      C2576   1.413       .  A
C1921      C1922   1.410       .  A
C1921     Br1928   1.932       .  S
C1922      C2579   1.414       .  A
C1922     Br1927   1.934       .  S
C1923      C2578   1.414   1_545  A
C1923      C1924   1.410       .  A
C1924     Br1925   1.927       .  S
C1929      C1930   1.415   1_455  A
C1929      C1934   1.410       .  A
C1929     Br1936   1.933       .  S
C1931      C1932   1.405       .  A
C1931     Br1938   1.931       .  S
C1932     Br1937   1.936       .  S
C1933      C1934   1.412   1_655  A
C1934     Br1935   1.933       .  S
C1939      C1944   1.411       .  A
C1939     Br1946   1.933       .  S
C1940      C1941   1.411       .  A
C1941      C1942   1.409       .  A
C1941     Br1948   1.932       .  S
C1942      C1943   1.413       .  A
C1942     Br1947   1.932       .  S
C1944     Br1945   1.932       .  S
C1949      C1950   1.413       .  A
C1949      C1954   1.409       .  A
C1949     Br1956   1.932       .  S
C1951      C1952   1.408       .  A
C1951     Br1958   1.933       .  S
C1952     Br1957   1.933       .  S
C1953      C1954   1.411       .  A
C1954     Br1955   1.932       .  S
C1959      C1964   1.409       .  A
C1959     Br1966   1.934       .  S
C1960      C1961   1.414   1_655  A
C1961      C1962   1.409       .  A
C1961     Br1968   1.928       .  S
C1962      C1963   1.412   1_445  A
C1962     Br1967   1.934       .  S
C1964     Br1965   1.933       .  S
O1970      V1977   1.898       .  S
O1971      V1977   1.899       .  S
O1971      C1981   1.264       .  A
O1972      C1982   1.264       .  A
O1974      V1978   1.903       .  S
O1976      V1978   1.899       .  S
O1976      C1979   1.264       .  A
C1979      C2619   1.480       .  S
C1981      C2606   1.480       .  S
C1982      C2599   1.483       .  S
O1983      V1991   1.899       .  S
O1984      V1991   1.898       .  S
O1985      V1991   1.905       .  S
O1985      C1995   1.266       .  A
O1986      V1991   1.905       .  S
O1986      C1996   1.266       .  A
O1987      V1992   1.897       .  S
O1988      V1992   1.900       .  S
O1989      V1992   1.895       .  S
O1989      C1994   1.263   1_655  A
O1990      V1992   1.895       .  S
O1990      C1993   1.264       .  A
C1993      C2589   1.477       .  S
C1994      C2163   1.461       .  S
C1995      C2596   1.484       .  S
C1996      C2609   1.480       .  S
O1998      V2005   1.898       .  S
O1998      C2008   1.262       .  A
O1999      V2005   1.905       .  S
O1999      C2009   1.265       .  A
O2000      C2010   1.265       .  A
O2001      C2010   1.264       .  A
O2002      V2006   1.906       .  S
O2002      C2009   1.265       .  A
O2004      V2006   1.906       .  S
O2004      C2007   1.266       .  A
V2005      V2006   2.087       .  T
C2008      C2177   1.468   1_565  S
C2009      C2556   1.483       .  S
C2010      C2566   1.482       .  S
O2011      V2019   1.897       .  S
O2011      C2021   1.263       .  A
O2012      V2019   1.898       .  S
O2012      C2022   1.262       .  A
O2013      V2019   1.910       .  S
O2013      C2023   1.267       .  A
O2014      V2019   1.908       .  S
O2014      C2024   1.267       .  A
O2015      V2020   1.901       .  S
O2015      C2024   1.263       .  A
O2016      V2020   1.897       .  S
O2016      C2023   1.263       .  A
O2017      V2020   1.902       .  S
O2017      C2022   1.265       .  A
O2018      V2020   1.903       .  S
O2018      C2021   1.266       .  A
V2019      V2020   2.087       .  T
C2021      C2546   1.485       .  S
C2022      C2192   1.466       .  S
C2023      C2569   1.483       .  S
C2024      C2559   1.482       .  S
O2025      V2033   1.907       .  S
O2025      C2035   1.267       .  A
O2027      C2037   1.264       .  A
O2028      V2033   1.897       .  S
O2028      C2038   1.264       .  A
O2029      V2034   1.903       .  S
O2031      V2034   1.894       .  S
C2035      C2616   1.486       .  S
C2036      C2094   1.461       .  S
C2037      C2536   1.499       .  S
C2038      C2526   1.478       .  S
O2039      V2047   1.890       .  S
O2039      C2049   1.262       .  A
O2041      C2051   1.264       .  A
O2042      V2047   1.901       .  S
O2042      C2052   1.264       .  A
O2043      V2048   1.891       .  S
O2043      C2052   1.261       .  A
O2044      C2051   1.262       .  A
O2045      V2048   1.911       .  S
O2045      C2050   1.267       .  A
V2047      V2048   2.083       .  T
C2049      C2586   1.485       .  S
C2050      C2107   1.466       .  S
C2051      C2516   1.471       .  S
C2052      C2509   1.505       .  S
O2053      V2061   1.907       .  S
O2053      C2063   1.266       .  A
O2054      V2061   1.900       .  S
O2054      C2064   1.262       .  A
O2055      V2061   1.897       .  S
O2055      C2065   1.264       .  A
O2056      V2061   1.903       .  S
O2056      C2066   1.265       .  A
O2057      V2062   1.903       .  S
O2058      V2062   1.901       .  S
O2059      V2062   1.898       .  S
O2060      V2062   1.897       .  S
C2063      C2579   1.484       .  S
C2064      C2122   1.464       .  S
C2065      C2529   1.478       .  S
C2066      C2539   1.502       .  S
O2067      V2075   1.897       .  S
O2067      C2077   1.264       .  A
O2068      V2075   1.893       .  S
O2068      C2078   1.261       .  A
O2069      V2075   1.897       .  S
O2069      C2079   1.263       .  A
O2070      V2075   1.899       .  S
O2070      C2080   1.265       .  A
O2071      V2076   1.894       .  S
O2071      C2080   1.263       .  A
O2072      V2076   1.891       .  S
O2072      C2079   1.261       .  A
O2073      V2076   1.909       .  S
O2073      C2078   1.267       .  A
O2074      V2076   1.907       .  S
O2074      C2077   1.266       .  A
V2075      V2076   2.083       .  T
C2077      C2549   1.482       .  S
C2078      C2133   1.467       .  S
C2079      C2506   1.504       .  S
C2080      C2519   1.474       .  S
O2081      V2089   1.910       .  S
O2083      V2089   1.904       .  S
O2084      C2094   1.264       .  A
O2086      V2090   1.904   1_455  S
O2086      C2093   1.264       .  A
O2087      V2090   1.901       .  S
O2087      C2092   1.265   1_565  A
O2088      C2091   1.264       .  A
C2091      C2496   1.491       .  S
C2092      C2489   1.482       .  S
C2093      C2260   1.470       .  S
O2095      V2103   1.902       .  S
O2095      C2105   1.264       .  A
O2096      C2106   1.264       .  A
O2097      V2103   1.898       .  S
O2097      C2107   1.265       .  A
O2099      C2108   1.264       .  A
O2100      V2104   1.902       .  S
O2101      V2104   1.908       .  S
O2101      C2106   1.266       .  A
O2102      C2105   1.267       .  A
C2105      C2469   1.486       .  S
C2106      C2476   1.484       .  S
C2108      C2274   1.468       .  S
O2109      V2117   1.906       .  S
O2110      V2117   1.905       .  S
O2111      V2117   1.901       .  S
O2112      V2117   1.900       .  S
O2112      C2122   1.265       .  A
O2113      V2118   1.897       .  S
O2114      V2118   1.903       .  S
O2114      C2121   1.263       .  A
O2115      V2118   1.900       .  S
O2115      C2120   1.265       .  A
O2116      V2118   1.905       .  S
O2116      C2119   1.265   1_565  A
C2119      C2486   1.483       .  S
C2120      C2499   1.488       .  S
C2121      C2288   1.468       .  S
O2123      V2131   1.902       .  S
O2123      C2133   1.263       .  A
O2124      V2131   1.899       .  S
O2124      C2134   1.264       .  A
O2125      V2131   1.903       .  S
O2125      C2135   1.265       .  A
O2126      V2131   1.906       .  S
O2126      C2136   1.266       .  A
O2127      V2132   1.906       .  S
O2127      C2136   1.266       .  A
O2128      V2132   1.904       .  S
O2128      C2135   1.265       .  A
O2129      V2132   1.904       .  S
O2129      C2134   1.265       .  A
O2130      V2132   1.901       .  S
O2130      C2133   1.265       .  A
V2131      V2132   2.088       .  T
C2134      C2302   1.468       .  S
C2135      C2479   1.483       .  S
C2136      C2466   1.486       .  S
O2138      V2145   1.901   1_556  S
O2138      C2148   1.263       .  A
O2139      V2145   1.902   1_565  S
O2139      C2149   1.265       .  A
O2140      C2150   1.265       .  A
O2142      V2146   1.899   1_565  S
O2144      V2146   1.897       .  S
C2149      C2446   1.483       .  S
C2150      C2459   1.482       .  S
O2151      V2159   1.903       .  S
O2152      V2159   1.911       .  S
O2153      V2159   1.898       .  S
O2154      V2159   1.903   1_556  S
O2155      V2160   1.901   1_556  S
O2155      C2164   1.264       .  A
O2156      V2160   1.896       .  S
O2156      C2163   1.263   1_655  A
O2157      V2160   1.898       .  S
O2157      C2162   1.264   1_655  A
O2158      V2160   1.895       .  S
O2158      C2161   1.263       .  A
C2161      C2456   1.479       .  S
C2162      C2449   1.486       .  S
C2164      C2218   1.469       .  S
O2165      V2173   1.899       .  S
O2165      C2175   1.264       .  A
O2166      C2176   1.263       .  A
O2167      V2173   1.900       .  S
O2168      C2178   1.265       .  A
O2170      V2174   1.903       .  S
O2170      C2177   1.263       .  A
O2171      V2174   1.905   1_565  S
O2171      C2176   1.266       .  A
O2172      C2175   1.266       .  A
C2175      C2439   1.485       .  S
C2176      C2426   1.479       .  S
C2178      C2232   1.466       .  S
O2179      V2187   1.902       .  S
O2179      C2189   1.265       .  A
O2180      V2187   1.904       .  S
O2180      C2190   1.265       .  A
O2181      V2187   1.904   1_556  S
O2181      C2191   1.266       .  A
O2182      V2187   1.901       .  S
O2182      C2192   1.265       .  A
O2183      V2188   1.899       .  S
O2183      C2192   1.262       .  A
O2184      V2188   1.898   1_556  S
O2184      C2191   1.263       .  A
O2185      V2188   1.902       .  S
O2185      C2190   1.265       .  A
O2186      V2188   1.901       .  S
O2186      C2189   1.265       .  A
V2187      V2188   2.088       .  T
C2189      C2436   1.484       .  S
C2190      C2429   1.480       .  S
C2191      C2246   1.468       .  S
O2194      V2201   1.900       .  S
O2194      C2204   1.265       .  A
O2195      V2201   1.907       .  S
O2195      C2205   1.266       .  A
O2196      C2206   1.265       .  A
O2198      V2202   1.901       .  S
O2200      V2202   1.905       .  S
C2205      C2409   1.485       .  S
C2206      C2399   1.480   1_655  S
O2207      V2215   1.902       .  S
O2207      C2217   1.265       .  A
O2208      V2215   1.901       .  S
O2208      C2218   1.264       .  A
O2209      V2215   1.896       .  S
O2209      C2219   1.264   1_655  A
O2210      V2215   1.907       .  S
O2210      C2220   1.265       .  A
O2211      V2216   1.907       .  S
O2212      V2216   1.905       .  S
O2213      V2216   1.904       .  S
O2214      V2216   1.906       .  S
C2217      C2389   1.494       .  S
C2219      C2396   1.477       .  S
C2220      C2406   1.489       .  S
O2221      V2229   1.902       .  S
O2221      C2231   1.265       .  A
O2223      C2233   1.264       .  A
O2224      V2229   1.901   1_565  S
O2224      C2234   1.264       .  A
O2225      V2230   1.903   1_565  S
O2225      C2234   1.266       .  A
O2226      C2233   1.266       .  A
O2227      V2230   1.896       .  S
O2227      C2232   1.264       .  A
V2229      V2230   2.087       .  T
C2231      C2376   1.482       .  S
C2233      C2369   1.483       .  S
C2234      C2356   1.483       .  S
O2235      V2243   1.903       .  S
O2235      C2245   1.265       .  A
O2236      V2243   1.903       .  S
O2236      C2246   1.263       .  A
O2237      V2243   1.904       .  S
O2237      C2247   1.265       .  A
O2238      V2243   1.904       .  S
O2238      C2248   1.265       .  A
O2239      V2244   1.906       .  S
O2239      C2248   1.265       .  A
O2240      V2244   1.899       .  S
O2240      C2247   1.264       .  A
O2241      V2244   1.900       .  S
O2241      C2246   1.265       .  A
O2242      V2244   1.904       .  S
O2242      C2245   1.265       .  A
V2243      V2244   2.087       .  T
C2245      C2346   1.488       .  S
C2247      C2359   1.482       .  S
C2248      C2366   1.483       .  S
O2249      V2257   1.904       .  S
O2249      C2259   1.265       .  A
O2251      C2261   1.264       .  A
O2252      V2257   1.896       .  S
O2252      C2262   1.263       .  A
O2253      V2258   1.903       .  S
O2255      V2258   1.900       .  S
C2259      C2419   1.481       .  S
C2261      C2336   1.492       .  S
C2262      C2326   1.482       .  S
O2263      V2271   1.898       .  S
O2263      C2273   1.263       .  A
O2265      C2275   1.267       .  A
O2266      V2271   1.909       .  S
O2266      C2276   1.267       .  A
O2267      V2272   1.897       .  S
O2267      C2276   1.263       .  A
O2268      C2275   1.263       .  A
O2269      V2272   1.907       .  S
O2269      C2274   1.265       .  A
V2271      V2272   2.087       .  T
C2273      C2386   1.485       .  S
C2275      C2316   1.485       .  S
C2276      C2306   1.487       .  S
O2277      V2285   1.906       .  S
O2277      C2287   1.266       .  A
O2278      V2285   1.908       .  S
O2278      C2288   1.267       .  A
O2279      V2285   1.893       .  S
O2279      C2289   1.262       .  A
O2280      V2285   1.895       .  S
O2280      C2290   1.263       .  A
O2281      V2286   1.907       .  S
O2282      V2286   1.908       .  S
O2283      V2286   1.895       .  S
O2284      V2286   1.896       .  S
C2287      C2379   1.482       .  S
C2289      C2329   1.483       .  S
C2290      C2339   1.493       .  S
O2291      V2299   1.897       .  S
O2291      C2301   1.264       .  A
O2292      V2299   1.898       .  S
O2292      C2302   1.264       .  A
O2293      V2299   1.902       .  S
O2293      C2303   1.264       .  A
O2294      V2299   1.902       .  S
O2294      C2304   1.265       .  A
O2295      V2300   1.909       .  S
O2295      C2304   1.266       .  A
O2296      V2300   1.904       .  S
O2296      C2303   1.266       .  A
O2297      V2300   1.906       .  S
O2297      C2302   1.265       .  A
O2298      V2300   1.909       .  S
O2298      C2301   1.266       .  A
V2299      V2300   2.087       .  T
C2301      C2349   1.485       .  S
C2303      C2309   1.486       .  S
C2304      C2319   1.486       .  S
C2305      C2306   1.414       .  A
C2305      C2310   1.412       .  A
C2305     Br2312   1.933       .  S
C2306      C2307   1.414       .  A
C2307      C2308   1.409       .  A
C2307     Br2314   1.934       .  S
C2308      C2309   1.413       .  A
C2308     Br2313   1.934       .  S
C2309      C2310   1.414       .  A
C2310     Br2311   1.933       .  S
C2315      C2316   1.414       .  A
C2315      C2320   1.412       .  A
C2315     Br2322   1.933       .  S
C2316      C2317   1.411       .  A
C2317      C2318   1.411       .  A
C2317     Br2324   1.931       .  S
C2318      C2319   1.413       .  A
C2318     Br2323   1.932       .  S
C2319      C2320   1.412       .  A
C2320     Br2321   1.932       .  S
C2325      C2326   1.413       .  A
C2325      C2330   1.408       .  A
C2325     Br2332   1.935       .  S
C2327      C2328   1.410       .  A
C2327     Br2334   1.933       .  S
C2328     Br2333   1.932       .  S
C2329      C2330   1.415       .  A
C2330     Br2331   1.936       .  S
C2335      C2336   1.416   1_545  A
C2335      C2340   1.412       .  A
C2335     Br2342   1.935       .  S
C2337      C2338   1.410       .  A
C2337     Br2344   1.938       .  S
C2338     Br2343   1.938       .  S
C2339      C2340   1.416   1_565  A
C2340     Br2341   1.935       .  S
C2345      C2346   1.416       .  A
C2345      C2350   1.412       .  A
C2345     Br2352   1.933       .  S
C2346      C2347   1.413       .  A
C2347      C2348   1.409       .  A
C2347     Br2354   1.932       .  S
C2348      C2349   1.413       .  A
C2348     Br2353   1.934       .  S
C2349      C2350   1.412       .  A
C2350     Br2351   1.932       .  S
C2355      C2356   1.412       .  A
C2355      C2360   1.408       .  A
C2355     Br2362   1.933       .  S
C2356      C2357   1.413       .  A
C2357      C2358   1.411       .  A
C2357     Br2364   1.932       .  S
C2358      C2359   1.412       .  A
C2358     Br2363   1.932       .  S
C2359      C2360   1.411       .  A
C2360     Br2361   1.934       .  S
C2365      C2366   1.410       .  A
C2365      C2370   1.410       .  A
C2365     Br2372   1.931       .  S
C2366      C2367   1.413       .  A
C2367      C2368   1.412       .  A
C2367     Br2374   1.931       .  S
C2368      C2369   1.412       .  A
C2368     Br2373   1.931       .  S
C2369      C2370   1.412       .  A
C2370     Br2371   1.931       .  S
C2375      C2376   1.412       .  A
C2375      C2380   1.408       .  A
C2375     Br2382   1.933       .  S
C2377      C2378   1.410       .  A
C2377     Br2384   1.933       .  S
C2378     Br2383   1.932       .  S
C2379      C2380   1.413   1_565  A
C2380     Br2381   1.934       .  S
C2385      C2386   1.409   1_455  A
C2385      C2390   1.412       .  A
C2385     Br2392   1.932       .  S
C2387      C2388   1.411       .  A
C2387     Br2394   1.934       .  S
C2388     Br2393   1.934       .  S
C2389      C2390   1.419   1_655  A
C2390     Br2391   1.933       .  S
C2395      C2400   1.412       .  A
C2395     Br2402   1.931       .  S
C2396      C2397   1.409   1_455  A
C2397      C2398   1.407       .  A
C2397     Br2404   1.933       .  S
C2398      C2399   1.411   1_655  A
C2398     Br2403   1.931       .  S
C2400     Br2401   1.930       .  S
C2405      C2410   1.411       .  A
C2405     Br2412   1.931       .  S
C2406      C2407   1.414       .  A
C2407      C2408   1.412       .  A
C2407     Br2414   1.931       .  S
C2408      C2409   1.412       .  A
C2408     Br2413   1.932       .  S
C2410     Br2411   1.933       .  S
C2415      C2416   1.415   1_545  A
C2415      C2420   1.409       .  A
C2415     Br2422   1.934       .  S
C2417      C2418   1.411       .  A
C2417     Br2424   1.933       .  S
C2418     Br2423   1.932       .  S
C2419      C2420   1.410   1_565  A
C2420     Br2421   1.933       .  S
C2425      C2426   1.411       .  A
C2425      C2430   1.409       .  A
C2425     Br2432   1.933       .  S
C2426      C2427   1.411       .  A
C2427      C2428   1.409       .  A
C2427     Br2434   1.932   1_554  S
C2428      C2429   1.412       .  A
C2428     Br2433   1.932   1_554  S
C2429      C2430   1.412       .  A
C2430     Br2431   1.931       .  S
C2435      C2436   1.413       .  A
C2435      C2440   1.410       .  A
C2435     Br2442   1.934       .  S
C2436      C2437   1.412       .  A
C2437      C2438   1.409       .  A
C2437     Br2444   1.934   1_554  S
C2438      C2439   1.414       .  A
C2438     Br2443   1.934   1_554  S
C2439      C2440   1.412       .  A
C2440     Br2441   1.932       .  S
C2445      C2450   1.411       .  A
C2445     Br2452   1.935       .  S
C2446      C2447   1.412       .  A
C2447      C2448   1.408       .  A
C2447     Br2454   1.933   1_554  S
C2448      C2449   1.413   1_655  A
C2448     Br2453   1.933   1_554  S
C2450     Br2451   1.931       .  S
C2455      C2456   1.412       .  A
C2455      C2460   1.410       .  A
C2455     Br2462   1.934       .  S
C2457      C2458   1.408       .  A
C2457     Br2464   1.933   1_554  S
C2458     Br2463   1.931   1_554  S
C2459      C2460   1.413       .  A
C2460     Br2461   1.932       .  S
C2465      C2466   1.412       .  A
C2465      C2470   1.411       .  A
C2465     Br2472   1.929       .  S
C2466      C2467   1.412       .  A
C2467      C2468   1.411       .  A
C2467     Br2474   1.931       .  S
C2468      C2469   1.412       .  A
C2468     Br2473   1.931       .  S
C2469      C2470   1.412       .  A
C2470     Br2471   1.930       .  S
C2475      C2476   1.414       .  A
C2475      C2480   1.411       .  A
C2475     Br2482   1.933       .  S
C2476      C2477   1.412       .  A
C2477      C2478   1.410       .  A
C2477     Br2484   1.931       .  S
C2478      C2479   1.412       .  A
C2478     Br2483   1.933       .  S
C2479      C2480   1.412       .  A
C2480     Br2481   1.932       .  S
C2485      C2490   1.411       .  A
C2485     Br2492   1.932       .  S
C2486      C2487   1.412   1_545  A
C2487      C2488   1.410       .  A
C2487     Br2494   1.931       .  S
C2488      C2489   1.412   1_565  A
C2488     Br2493   1.932       .  S
C2490     Br2491   1.932       .  S
C2495      C2496   1.415   1_545  A
C2495      C2500   1.412       .  A
C2495     Br2502   1.933       .  S
C2497      C2498   1.408       .  A
C2497     Br2504   1.927       .  S
C2498     Br2503   1.928       .  S
C2499      C2500   1.413   1_565  A
C2500     Br2501   1.934       .  S
C2505      C2506   1.422       .  A
C2505      C2510   1.412       .  A
C2505     Br2512   1.944       .  S
C2506      C2507   1.424       .  A
C2507      C2508   1.412       .  A
C2507     Br2514   1.947       .  S
C2508      C2509   1.424       .  A
C2508     Br2513   1.946       .  S
C2509      C2510   1.422       .  A
C2510     Br2511   1.941       .  S
C2515      C2516   1.409       .  A
C2515      C2520   1.407       .  A
C2515     Br2522   1.933       .  S
C2516      C2517   1.409       .  A
C2517      C2518   1.405       .  A
C2517     Br2524   1.933       .  S
C2518      C2519   1.410       .  A
C2518     Br2523   1.932       .  S
C2519      C2520   1.413       .  A
C2520     Br2521   1.933       .  S
C2525      C2526   1.411       .  A
C2525      C2530   1.406       .  A
C2525     Br2532   1.933       .  S
C2527      C2528   1.410       .  A
C2527     Br2534   1.932       .  S
C2528     Br2533   1.933       .  S
C2529      C2530   1.411       .  A
C2530     Br2531   1.934       .  S
C2535      C2536   1.418       .  A
C2535      C2540   1.414       .  A
C2535     Br2542   1.936       .  S
C2537      C2538   1.410       .  A
C2537     Br2544   1.939       .  S
C2538     Br2543   1.937       .  S
C2539      C2540   1.421       .  A
C2540     Br2541   1.936       .  S
C2545      C2546   1.413       .  A
C2545      C2550   1.407       .  A
C2545     Br2552   1.933       .  S
C2546      C2547   1.417       .  A
C2547      C2548   1.410       .  A
C2547     Br2554   1.933       .  S
C2548      C2549   1.410       .  A
C2548     Br2553   1.931       .  S
C2549      C2550   1.411       .  A
C2550     Br2551   1.931       .  S
C2555      C2556   1.412       .  A
C2555      C2560   1.411       .  A
C2555     Br2562   1.930       .  S
C2556      C2557   1.412       .  A
C2557      C2558   1.411       .  A
C2557     Br2564   1.931       .  S
C2558      C2559   1.412       .  A
C2558     Br2563   1.932       .  S
C2559      C2560   1.410       .  A
C2560     Br2561   1.931       .  S
C2565      C2566   1.411       .  A
C2565      C2570   1.408       .  A
C2565     Br2572   1.933       .  S
C2566      C2567   1.413       .  A
C2567      C2568   1.411       .  A
C2567     Br2574   1.932       .  S
C2568      C2569   1.411       .  A
C2568     Br2573   1.930       .  S
C2569      C2570   1.413       .  A
C2570     Br2571   1.933       .  S
C2575      C2576   1.415       .  A
C2575      C2580   1.409       .  A
C2575     Br2582   1.934       .  S
C2577      C2578   1.410       .  A
C2577     Br2584   1.933       .  S
C2578     Br2583   1.934       .  S
C2579      C2580   1.410       .  A
C2580     Br2581   1.927       .  S
C2585      C2586   1.415   1_455  A
C2585      C2590   1.410       .  A
C2585     Br2592   1.933       .  S
C2587      C2588   1.405       .  A
C2587     Br2594   1.931       .  S
C2588     Br2593   1.936       .  S
C2589      C2590   1.412   1_655  A
C2590     Br2591   1.933       .  S
C2595      C2600   1.411       .  A
C2595     Br2602   1.933       .  S
C2596      C2597   1.411       .  A
C2597      C2598   1.409       .  A
C2597     Br2604   1.932       .  S
C2598      C2599   1.412       .  A
C2598     Br2603   1.932       .  S
C2600     Br2601   1.932       .  S
C2605      C2606   1.413       .  A
C2605      C2610   1.409       .  A
C2605     Br2612   1.932       .  S
C2607      C2608   1.409       .  A
C2607     Br2614   1.932       .  S
C2608     Br2613   1.933       .  S
C2609      C2610   1.411       .  A
C2610     Br2611   1.932       .  S
C2615      C2620   1.409       .  A
C2615     Br2622   1.934       .  S
C2616      C2617   1.413   1_655  A
C2617      C2618   1.408       .  A
C2617     Br2624   1.928       .  S
C2618      C2619   1.411   1_455  A
C2618     Br2623   1.934       .  S
C2620     Br2621   1.934       .  S
