geometry optimzed in LAMMPS
_audit_creation_date              2020-11-30 
_audit_creation_method            'lammps2cif' 
_symmetry_space_group_name_H-M    'P1' 
_symmetry_Int_Tables_number       1 
_symmetry_cell_setting            triclinic 
loop_ 
_symmetry_equiv_pos_as_xyz 
  x,y,z 
_cell_length_a                    31.03922968561016 
_cell_length_b                    30.986327578869776 
_cell_length_c                    36.73658460257751 
_cell_angle_alpha                 89.86651159313817 
_cell_angle_beta                  90.05687813592765 
_cell_angle_gamma                 120.37737603158827 
loop_ 
_atom_site_label 
_atom_site_type_symbol 
_atom_site_fract_x 
_atom_site_fract_y 
_atom_site_fract_z 
_atom_site_charge 
O1          O  0.06305565  0.55521716  0.53848822    -0.72690
O2          O  0.01130256  0.44742228  0.46295011    -0.73670
O3          O  0.06252257  0.55309968  0.46137573    -0.62290
O4          O  0.01193236  0.44948419  0.54024966    -0.70700
O5          O  0.93881135  0.44602467  0.53938426    -0.70260
O6          O  0.98979690  0.55062575  0.46092997    -0.61510
O7          O  0.93851991  0.44455079  0.46213937    -0.74020
O8          O  0.99008111  0.55213325  0.53829706    -0.72800
Cu9        Cu  0.03969370  0.50135309  0.50075814     1.04560
Cu10       Cu  0.96176082  0.49830285  0.50016951     1.04330
C11         C  0.03465829  0.57077822  0.55034494     0.93500
C12         C  0.96685015  0.42864181  0.45069392     0.92640
C13         C  0.03397075  0.56788939  0.44851621     0.84790
C14         C  0.96761044  0.43157706  0.55243792     0.91060
O15         O  0.43843714  0.45074967  0.04007594    -0.72690
O16         O  0.49086277  0.55591925  0.96179269    -0.73670
O17         O  0.43739931  0.45011569  0.96243436    -0.62290
O18         O  0.49254400  0.55698300  0.03955599    -0.70700
O19         O  0.56313472  0.55529252  0.03884699    -0.70260
O20         O  0.50854259  0.44948409  0.96173993    -0.61510
O21         O  0.56206654  0.55516622  0.96111877    -0.74020
O22         O  0.50921895  0.44929821  0.03907522    -0.72800
Cu23       Cu  0.46229493  0.50346090  0.00102137     1.04560
Cu24       Cu  0.53824934  0.50237410  0.00022338     1.04330
C25         C  0.46560371  0.43371230  0.05203924     0.93500
C26         C  0.53447475  0.57154881  0.94884605     0.92640
C27         C  0.46451229  0.43354402  0.94950157     0.84790
C28         C  0.53690400  0.57309312  0.05123752     0.91060
O29         O  0.00852958  0.56164287  0.03743826    -0.72690
O30         O  0.06046789  0.50607174  0.96188499    -0.73670
O31         O  0.01001825  0.56044826  0.96037230    -0.62290
O32         O  0.05953145  0.50743255  0.03944130    -0.70700
O33         O  0.98714151  0.43567220  0.03895065    -0.70260
O34         O  0.93646148  0.49048756  0.96158396    -0.61510
O35         O  0.98707673  0.43584443  0.96192258    -0.74020
O36         O  0.93649678  0.49030979  0.03887986    -0.72800
Cu37       Cu  0.03717423  0.53638233  0.99981784     1.04560
Cu38       Cu  0.95925348  0.46060158  0.00033318     1.04330
C39         C  0.96439577  0.53493841  0.05027492     0.93500
C40         C  0.03158226  0.46194495  0.94977885     0.92640
C41         C  0.96554085  0.53399581  0.94839225     0.84790
C42         C  0.03118952  0.46316390  0.05149528     0.91060
N43         N  0.77147482  0.13409872  0.20765634    -0.27040
N44         N  0.78672136  0.10708195  0.18990221    -0.34900
C45         C  0.75801921  0.08685662  0.16033921     0.01300
C46         C  0.72256001  0.10112720  0.15957402     0.07330
C47         C  0.73213340  0.13119418  0.18985545    -0.05770
H48         H  0.76188344  0.06241504  0.14130046     0.07990
H49         H  0.71206654  0.14965112  0.19826184     0.09190
Cu50       Cu  0.84325178  0.09481579  0.20657417     0.44170
Cu51       Cu  0.80578309  0.17528341  0.25449829     0.41990
Cu52       Cu  0.91192539  0.16431725  0.28273774     0.43880
N53         N  0.89631145  0.08322168  0.23136269    -0.34430
N54         N  0.92104548  0.10844986  0.26048746    -0.28680
C55         C  0.95148781  0.09197804  0.27152877    -0.04780
C56         C  0.94598765  0.05484106  0.24786422     0.07430
C57         C  0.91064786  0.05021979  0.22271731     0.01230
H58         H  0.97608565  0.10625733  0.29483598     0.08880
H59         H  0.89644689  0.02478394  0.19987292     0.07960
N60         N  0.89579193  0.21645175  0.30318742    -0.35880
N61         N  0.85568410  0.21899609  0.29518814    -0.28060
C62         C  0.85559963  0.25485724  0.31585634    -0.03290
C63         C  0.89858990  0.27693321  0.33733392     0.05320
C64         C  0.92278232  0.25108739  0.32818580     0.03410
H65         H  0.82569829  0.26310874  0.31550454     0.08510
H66         H  0.95755473  0.25638295  0.33893812     0.07350
N67         N  0.13646389  0.77520016  0.29369316    -0.27040
N68         N  0.10144285  0.78371333  0.30602820    -0.34900
C69         C  0.07763388  0.75271679  0.33391132     0.01300
C70         C  0.09912316  0.72371002  0.34013017     0.07330
C71         C  0.13591349  0.73847517  0.31375214    -0.05770
H72         H  0.04693436  0.75166166  0.34863766     0.07990
H73         H  0.16107257  0.72426831  0.30987284     0.09190
Cu74       Cu  0.08748392  0.83790705  0.28647639     0.44170
Cu75       Cu  0.18355172  0.81481641  0.25059430     0.41990
Cu76       Cu  0.15941116  0.90929174  0.21121046     0.43880
N77         N  0.07822074  0.89305755  0.26276758    -0.34430
N78         N  0.10366917  0.91836332  0.23382304    -0.28680
C79         C  0.08841827  0.95024540  0.22383770    -0.04780
C80         C  0.05210080  0.94526952  0.24815229     0.07430
C81         C  0.04665484  0.90867972  0.27250762     0.01230
H82         H  0.10319500  0.97567787  0.20095612     0.08880
H83         H  0.02161906  0.89446913  0.29559442     0.07960
N84         N  0.21424814  0.89531950  0.19339054    -0.35880
N85         N  0.22308174  0.86096929  0.20702231    -0.28060
C86         C  0.26006101  0.86114391  0.18773116    -0.03290
C87         C  0.27443830  0.89683127  0.16057213     0.05320
C88         C  0.24534562  0.91833354  0.16540711     0.03410
H89         H  0.27477745  0.83659302  0.19270804     0.08510
H90         H  0.24629197  0.94825050  0.14951873     0.07350
C91         C  0.97317389  0.02683228  0.24865993     0.02540
C92         C  0.94621469  0.97389168  0.24956529     0.02540
C93         C  0.97222109  0.94725884  0.24947740     0.02540
C94         C  0.02514497  0.97355726  0.24847467     0.02540
C95         C  0.05218659  0.02664044  0.24790462     0.02540
C96         C  0.02607492  0.05314694  0.24807920     0.02540
N97         N  0.63308288  0.76891940  0.21394909    -0.27040
N98         N  0.67671787  0.77627339  0.20265089    -0.34900
C99         C  0.66934885  0.74303887  0.17663189     0.01300
C100        C  0.61861225  0.71315033  0.17075098     0.07330
C101        C  0.59658634  0.73069133  0.19490581    -0.05770
H102        H  0.69909396  0.74203063  0.16201872     0.07990
H103        H  0.55720707  0.71810917  0.19734070     0.09190
Cu104      Cu  0.74549365  0.83358377  0.21928400     0.44170
Cu105      Cu  0.62700650  0.81349058  0.25362847     0.41990
Cu106      Cu  0.74824128  0.90835946  0.29228422     0.43880
N107        N  0.81128206  0.89197957  0.23929096    -0.34430
N108        N  0.81260035  0.91872810  0.26760337    -0.28680
C109        C  0.86044574  0.95212276  0.27553911    -0.04780
C110        C  0.89067066  0.94627719  0.25070596     0.07430
C111        C  0.85811528  0.90800053  0.22795686     0.01230
H112        H  0.87235803  0.97854302  0.29777804     0.08880
H113        H  0.86777331  0.89234962  0.20524195     0.07960
N114        N  0.67946733  0.89622224  0.30921383    -0.35880
N115        N  0.63575022  0.86292112  0.29522945    -0.28060
C116        C  0.59943930  0.86619765  0.31281336    -0.03290
C117        C  0.62165038  0.90344976  0.33869324     0.05320
C118        C  0.67216191  0.92134901  0.33590838     0.03410
H119        H  0.55988106  0.84287506  0.30742829     0.08510
H120        H  0.70152884  0.95045075  0.35218139     0.07350
N121        N  0.21995774  0.36466828  0.29567030    -0.27040
N122        N  0.20842892  0.32096718  0.31006901    -0.34900
C123        C  0.24085972  0.32812715  0.33677216     0.01300
C124        C  0.27536612  0.37869965  0.33906279     0.07330
C125        C  0.26049309  0.40088628  0.31290714    -0.05770
H126        H  0.23954128  0.29835880  0.35306249     0.07990
H127        H  0.27848307  0.44030044  0.30630941     0.09190
Cu128      Cu  0.15276932  0.25221034  0.29154983     0.44170
Cu129      Cu  0.18100852  0.37209773  0.25220308     0.41990
Cu130      Cu  0.09247715  0.25280748  0.20981236     0.43880
N131        N  0.10269777  0.18729814  0.26486563    -0.34430
N132        N  0.08095889  0.18758398  0.23403218    -0.28680
C133        C  0.05107108  0.14022500  0.22291621    -0.04780
C134        C  0.05415507  0.10865020  0.24812470     0.07430
C135        C  0.08726585  0.13973421  0.27435009     0.01230
H136        H  0.02827111  0.12953101  0.19861707     0.08880
H137        H  0.09890271  0.12858234  0.29863686     0.07960
N138        N  0.10626108  0.32178642  0.19159550    -0.35880
N139        N  0.13712851  0.36515796  0.20716565    -0.28060
C140        C  0.13579984  0.40190824  0.18841621    -0.03290
C141        C  0.10323104  0.38046156  0.15945812     0.05320
C142        C  0.08499580  0.32972627  0.16250696     0.03410
H143        H  0.15761308  0.44131527  0.19494134     0.08510
H144        H  0.05800383  0.30058090  0.14490897     0.07350
N145        N  0.36528869  0.22963337  0.20919576    -0.27040
N146        N  0.32308755  0.21591235  0.19146786    -0.34900
C147        C  0.33295851  0.24498592  0.16186850     0.01300
C148        C  0.38354981  0.27865361  0.16085685     0.07330
C149        C  0.40304155  0.26832032  0.19132109    -0.05770
H150        H  0.30514782  0.24228927  0.14275697     0.07990
H151        H  0.44178674  0.28721176  0.19970189     0.09190
Cu152      Cu  0.25256830  0.15998477  0.20754186     0.44170
Cu153      Cu  0.37049300  0.19380106  0.25589305     0.41990
Cu154      Cu  0.25149607  0.08609531  0.28052112     0.43880
N155        N  0.18665735  0.10537682  0.23119161    -0.34430
N156        N  0.18672165  0.07893952  0.25935877    -0.28680
C157        C  0.13950389  0.04802307  0.27020363    -0.04780
C158        C  0.10784928  0.05453399  0.24722667     0.07430
C159        C  0.13913649  0.09135494  0.22280722     0.01230
H160        H  0.12896657  0.02215067  0.29278477     0.08880
H161        H  0.12815592  0.10660041  0.20052500     0.07960
N162        N  0.31874004  0.10197147  0.30299879    -0.35880
N163        N  0.36199433  0.14287328  0.29663469    -0.28060
C164        C  0.39646782  0.14306497  0.31912899    -0.03290
C165        C  0.37364894  0.10005340  0.34068332     0.05320
C166        C  0.32457700  0.07461033  0.32866444     0.03410
H167        H  0.43520772  0.17258793  0.31982685     0.08510
H168        H  0.29461597  0.03856463  0.33746869     0.07350
N169        N  0.77362566  0.63402355  0.29181008    -0.27040
N170        N  0.78098788  0.67689930  0.30506494    -0.34900
C171        C  0.74779251  0.66734448  0.33173249     0.01300
C172        C  0.71773184  0.61610248  0.33531603     0.07330
C173        C  0.73568669  0.59607114  0.30997975    -0.05770
H174        H  0.74614194  0.69570777  0.34781123     0.07990
H175        H  0.72340575  0.55697147  0.30580317     0.09190
Cu176      Cu  0.83614675  0.74710861  0.28780458     0.44170
Cu177      Cu  0.81519697  0.62884604  0.24961265     0.41990
Cu178      Cu  0.89997110  0.74833003  0.20719685     0.43880
N179        N  0.89103905  0.81262379  0.26390757    -0.34430
N180        N  0.91351086  0.81288971  0.23333616    -0.28680
C181        C  0.94594337  0.86040555  0.22373561    -0.04780
C182        C  0.94395023  0.89164780  0.24965075     0.07430
C183        C  0.90881985  0.86008135  0.27482199     0.01230
H184        H  0.96915962  0.87141662  0.19963889     0.08880
H185        H  0.89659259  0.87086162  0.29893883     0.07960
N186        N  0.88960013  0.68058191  0.18942121    -0.35880
N187        N  0.86000790  0.63699218  0.20519633    -0.28060
C188        C  0.86502861  0.60143319  0.18802706    -0.03290
C189        C  0.89994150  0.62399129  0.16043589     0.05320
C190        C  0.91397980  0.67402227  0.16185454     0.03410
H191        H  0.84541950  0.56225754  0.19552030     0.08510
H192        H  0.94034182  0.70380124  0.14432994     0.07350
N193        N  0.85782039  0.22107627  0.70529970    -0.27040
N194        N  0.89248500  0.21295198  0.69153720    -0.34900
C195        C  0.91550307  0.24509025  0.66396179     0.01300
C196        C  0.89402255  0.27441595  0.65989543     0.07330
C197        C  0.85803142  0.25873870  0.68679938    -0.05770
H198        H  0.94593615  0.24719353  0.64816644     0.07990
H199        H  0.83416915  0.27393446  0.69278239     0.09190
Cu200      Cu  0.90888135  0.15990925  0.71082446     0.44170
Cu201      Cu  0.81259438  0.18166942  0.74915116     0.41990
Cu202      Cu  0.84759633  0.09867568  0.79318529     0.43880
N203        N  0.92038677  0.10664247  0.73607642    -0.34430
N204        N  0.89816175  0.08445390  0.76685495    -0.28680
C205        C  0.91311269  0.05218932  0.77660445    -0.04780
C206        C  0.94643456  0.05423466  0.75067781     0.07430
C207        C  0.95015485  0.08915816  0.72536269     0.01230
H208        H  0.90081007  0.02909082  0.80080654     0.08880
H209        H  0.97300047  0.10112011  0.70107079     0.07960
N210        N  0.79097983  0.11020811  0.81130705    -0.35880
N211        N  0.77645502  0.13856945  0.79467754    -0.28060
C212        C  0.73583581  0.13364343  0.81182654    -0.03290
C213        C  0.72400348  0.10022275  0.84048459     0.05320
C214        C  0.76056484  0.08709030  0.83960275     0.03410
H215        H  0.71574012  0.15213181  0.80348941     0.08510
H216        H  0.76463673  0.06196684  0.85786081     0.07350
N217        N  0.14093680  0.77804779  0.70465770    -0.27040
N218        N  0.10428682  0.78454491  0.69295987    -0.34900
C219        C  0.07856353  0.75061977  0.66705265     0.01300
C220        C  0.10011057  0.72148765  0.66207909     0.07330
C221        C  0.13989845  0.74013715  0.68604730    -0.05770
H222        H  0.04659718  0.74750343  0.65276736     0.07990
H223        H  0.16551717  0.72652901  0.69018211     0.09190
Cu224      Cu  0.09008019  0.83883624  0.71226209     0.44170
Cu225      Cu  0.18867779  0.81947394  0.74666321     0.41990
Cu226      Cu  0.16283059  0.91097879  0.78842456     0.43880
N227        N  0.08045446  0.89351482  0.73665680    -0.34430
N228        N  0.10614902  0.91910837  0.76543691    -0.28680
C229        C  0.09043952  0.95065461  0.77536032    -0.04780
C230        C  0.05337477  0.94496215  0.75140722     0.07430
C231        C  0.04816237  0.90845769  0.72718531     0.01230
H232        H  0.10526021  0.97624224  0.79808671     0.08880
H233        H  0.02278269  0.89386074  0.70432253     0.07960
N234        N  0.21967752  0.89842477  0.80482638    -0.35880
N235        N  0.22891001  0.86508272  0.78994344    -0.28060
C236        C  0.26731160  0.86585979  0.80760712    -0.03290
C237        C  0.28374136  0.90222472  0.83428575     0.05320
C238        C  0.25218589  0.92147080  0.83212518     0.03410
H239        H  0.28150339  0.84105932  0.80190104     0.08510
H240        H  0.25240653  0.94972397  0.84952726     0.07350
C241        C  0.97356293  0.02605111  0.75064250     0.02540
C242        C  0.94663667  0.97304532  0.75087287     0.02540
C243        C  0.97280670  0.94642219  0.75123407     0.02540
C244        C  0.02580356  0.97279688  0.75118970     0.02780
C245        C  0.05257433  0.02578473  0.75074237     0.02540
C246        C  0.02645116  0.05233946  0.75062433     0.02540
N247        N  0.36391119  0.22198979  0.79805050    -0.27040
N248        N  0.32013215  0.21358382  0.81004358    -0.34900
C249        C  0.32733345  0.24510744  0.83744527     0.01300
C250        C  0.37796944  0.27436256  0.84352636     0.07330
C251        C  0.40024264  0.25894068  0.81802900    -0.05770
H252        H  0.29775518  0.24659010  0.85193281     0.07990
H253        H  0.43986345  0.27419608  0.81380092     0.09190
Cu254      Cu  0.25170422  0.16018783  0.78957901     0.44170
Cu255      Cu  0.37157474  0.18430010  0.75378913     0.41990
Cu256      Cu  0.25249261  0.09430630  0.71118916     0.43880
N257        N  0.18693508  0.10584912  0.76518346    -0.34430
N258        N  0.18698925  0.08201216  0.73546336    -0.28680
C259        C  0.13949968  0.04992665  0.72563327    -0.04780
C260        C  0.10812606  0.05365457  0.75061801     0.07430
C261        C  0.13954697  0.08939222  0.77536235     0.01230
H262        H  0.12859369  0.02561856  0.70214986     0.08880
H263        H  0.12874493  0.10267200  0.79889297     0.07960
N264        N  0.32197287  0.10918566  0.69319082    -0.35880
N265        N  0.36526880  0.14151017  0.70814105    -0.28060
C266        C  0.40217605  0.14017161  0.68975727    -0.03290
C267        C  0.38093853  0.10520164  0.66204015     0.05320
C268        C  0.33011116  0.08639668  0.66526228     0.03410
H269        H  0.44126764  0.16173735  0.69697925     0.08510
H270        H  0.30089733  0.05772245  0.64862939     0.07350
N271        N  0.21938250  0.36423004  0.70193632    -0.27040
N272        N  0.21420579  0.32078185  0.69225024    -0.34900
C273        C  0.24673891  0.32813480  0.66567371     0.01300
C274        C  0.27328955  0.37855321  0.65736999     0.07330
C275        C  0.25549290  0.40051622  0.68132740    -0.05770
H276        H  0.25050774  0.29854062  0.65334324     0.07990
H277        H  0.26728880  0.43981999  0.68322057     0.09190
Cu278      Cu  0.16235913  0.25194321  0.71294532     0.44170
Cu279      Cu  0.17719812  0.37141496  0.74302594     0.41990
Cu280      Cu  0.09645248  0.25243940  0.78996306     0.43880
N281        N  0.10773576  0.18671820  0.73649948    -0.34430
N282        N  0.08367891  0.18677665  0.76605038    -0.28680
C283        C  0.05100384  0.13930185  0.77563366    -0.04780
C284        C  0.05461879  0.10790055  0.75063672     0.07430
C285        C  0.09088168  0.13928629  0.72612017     0.01230
H286        H  0.02647148  0.12845046  0.79899706     0.08880
H287        H  0.10425805  0.12844761  0.70266176     0.07960
N288        N  0.10810208  0.32117990  0.80652181    -0.35880
N289        N  0.13462360  0.36392822  0.78897822    -0.28060
C290        C  0.13071302  0.39978717  0.80675958    -0.03290
C291        C  0.10109297  0.37885380  0.83764519     0.05320
C292        C  0.08761778  0.32875351  0.83605552     0.03410
H293        H  0.14783596  0.43785624  0.79713160     0.08510
H294        H  0.06442726  0.29912887  0.85482264     0.07350
N295        N  0.63400126  0.76948898  0.78863579    -0.27040
N296        N  0.67701779  0.77663088  0.80133107    -0.34900
C297        C  0.66802803  0.74179600  0.82670401     0.01300
C298        C  0.61701770  0.71089249  0.82989554     0.07330
C299        C  0.59644331  0.72986138  0.80578132    -0.05770
H300        H  0.69652564  0.74024721  0.84268635     0.07990
H301        H  0.55717368  0.71691597  0.80190923     0.09190
Cu302      Cu  0.74638604  0.83460475  0.78555800     0.44170
Cu303      Cu  0.62882679  0.81506612  0.74944305     0.41990
Cu304      Cu  0.74805613  0.90756581  0.70947689     0.43880
N305        N  0.81170014  0.89214934  0.76355679    -0.34430
N306        N  0.81245162  0.91798933  0.73467659    -0.28680
C307        C  0.86018296  0.95076824  0.72585591    -0.04780
C308        C  0.89099510  0.94550147  0.75055986     0.07430
C309        C  0.85886885  0.90812309  0.77419218     0.01230
H310        H  0.87163315  0.97631577  0.70301660     0.08880
H311        H  0.86904500  0.89307990  0.79707103     0.07960
N312        N  0.67907689  0.89456618  0.69162704    -0.35880
N313        N  0.63585859  0.86235562  0.70683228    -0.28060
C314        C  0.59885389  0.86414779  0.68902866    -0.03290
C315        C  0.61994849  0.89868775  0.66118478     0.05320
C316        C  0.67069216  0.91726785  0.66357226     0.03410
H317        H  0.55951622  0.84118653  0.69533544     0.08510
H318        H  0.69943010  0.94520484  0.64617480     0.07350
N319        N  0.77277944  0.63445773  0.70800198    -0.27040
N320        N  0.78295842  0.67808826  0.69426440    -0.34900
C321        C  0.75312948  0.67032202  0.66561790     0.01300
C322        C  0.72305611  0.61933527  0.66063521     0.07330
C323        C  0.73597604  0.59761475  0.68832091    -0.05770
H324        H  0.75361523  0.69978309  0.64943104     0.07990
H325        H  0.72064927  0.55805329  0.69327148     0.09190
Cu326      Cu  0.83758106  0.74685706  0.71347938     0.44170
Cu327      Cu  0.81109607  0.62788368  0.75188987     0.41990
Cu328      Cu  0.90578605  0.74696094  0.79148184     0.43880
N329        N  0.89254547  0.81180791  0.73734870    -0.34430
N330        N  0.91692350  0.81196891  0.76687143    -0.28680
C331        C  0.94896274  0.85956347  0.77649327    -0.04780
C332        C  0.94472650  0.89083037  0.75158347     0.07430
C333        C  0.90871257  0.85922833  0.72706471     0.01230
H334        H  0.97364179  0.87060570  0.79977745     0.08880
H335        H  0.89503642  0.86991408  0.70364311     0.07960
N336        N  0.89056411  0.67733323  0.80962979    -0.35880
N337        N  0.85658390  0.63420819  0.79534382    -0.28060
C338        C  0.85747979  0.59670897  0.81318654    -0.03290
C339        C  0.89323282  0.61729116  0.84025981     0.05320
C340        C  0.91386344  0.66839760  0.83689030     0.03410
H341        H  0.83477473  0.55757960  0.80615729     0.08510
H342        H  0.94386170  0.69707563  0.85301123     0.07350
O343        O  0.56221825  0.01109993  0.46186537    -0.72690
O344        O  0.50792555  0.06268508  0.53943313    -0.73670
O345        O  0.56289318  0.01211638  0.53943081    -0.62290
O346        O  0.50795543  0.06238239  0.46175900    -0.70700
O347        O  0.43754785  0.98915907  0.46220838    -0.70260
O348        O  0.49217306  0.93880940  0.53986241    -0.61510
O349        O  0.43793436  0.98938555  0.53955025    -0.74020
O350        O  0.49142872  0.93799305  0.46272029    -0.72800
Cu351      Cu  0.53779565  0.03965825  0.50058658     1.04560
Cu352      Cu  0.46233286  0.96138180  0.50107077     1.04330
C353        C  0.53534855  0.96626770  0.45030742     0.93500
C354        C  0.46408962  0.03364862  0.55208430     0.92640
C355        C  0.53601596  0.96794485  0.55217304     0.84790
C356        C  0.46404809  0.03345186  0.44943519     0.91060
O357        O  0.54999831  0.06173516  0.96135012    -0.72690
O358        O  0.44440609  0.00575417  0.04018063    -0.73670
O359        O  0.55067797  0.06273271  0.03898015    -0.62290
O360        O  0.44403512  0.00680392  0.96240898    -0.70700
O361        O  0.44488370  0.93553703  0.96217779    -0.70260
O362        O  0.55215839  0.99178332  0.03928982    -0.61510
O363        O  0.44584329  0.93478830  0.03978041    -0.74020
O364        O  0.55057367  0.99069145  0.96241597    -0.72800
Cu365      Cu  0.49711436  0.03671561  0.00078683     1.04560
Cu366      Cu  0.49836845  0.96074079  0.00095623     1.04330
C367        C  0.56719223  0.03460965  0.94949067     0.93500
C368        C  0.42878302  0.96151551  0.05234456     0.92640
C369        C  0.56857946  0.03631715  0.05086031     0.84790
C370        C  0.42813748  0.96290039  0.94993386     0.91060
O371        O  0.44730566  0.43993758  0.46140484    -0.72690
O372        O  0.55156281  0.49036036  0.53952192    -0.73670
O373        O  0.44625443  0.44009198  0.53821326    -0.62290
O374        O  0.55310423  0.49085306  0.46171960    -0.70700
O375        O  0.55466085  0.56333201  0.46094690    -0.70260
O376        O  0.44880816  0.51292427  0.53799922    -0.61510
O377        O  0.55461161  0.56356159  0.53822584    -0.74020
O378        O  0.44886533  0.51208406  0.46044006    -0.72800
Cu379      Cu  0.49954838  0.46281845  0.50021271     1.04560
Cu380      Cu  0.50185946  0.54055600  0.49939879     1.04330
C381        C  0.43107601  0.46747964  0.44864882     0.93500
C382        C  0.56915884  0.53484209  0.55139848     0.92640
C383        C  0.43088491  0.46857031  0.55032533     0.84790
C384        C  0.57046810  0.53510284  0.44920001     0.91060
C385        C  0.63878527  0.55270569  0.64054259    -0.12020
C386        C  0.68537220  0.59430685  0.63169580     0.04990
C387        C  0.69389098  0.61405582  0.59602507    -0.07310
C388        C  0.65445059  0.59446952  0.57112717    -0.08050
C389        C  0.60756921  0.55387020  0.58002288    -0.02600
C390        C  0.59943401  0.53188852  0.61510314     0.04220
N391        N  0.55165163  0.49031310  0.62595173     0.66720
H392        H  0.63240149  0.53780853  0.66797289     0.15620
H393        H  0.66096338  0.60994868  0.54401843     0.15330
N394        N  0.74270477  0.65217597  0.58411231     0.74430
O395        O  0.54877051  0.46301971  0.65250713    -0.39020
O396        O  0.51172537  0.48322862  0.61144293    -0.38970
O397        O  0.78081150  0.65005162  0.59328650    -0.39670
O398        O  0.74720431  0.68369194  0.56033909    -0.39740
C399        C  0.58069611  0.94765121  0.64337237    -0.12020
C400        C  0.59423924  0.91235305  0.63386129     0.04990
C401        C  0.58717486  0.89425056  0.59779011    -0.07310
C402        C  0.56812053  0.91348674  0.57177018    -0.08050
C403        C  0.55608894  0.95002559  0.58095025    -0.02600
C404        C  0.56179731  0.96708396  0.61734771     0.04220
N405        N  0.54792648  0.00295395  0.62866634     0.66720
H406        H  0.58644694  0.96134382  0.67110699     0.15620
H407        H  0.56250450  0.89984808  0.54403676     0.15330
N408        N  0.59885018  0.85654598  0.58718045     0.74430
O409        O  0.53310655  0.00196264  0.66082158    -0.39020
O410        O  0.55484536  0.03854560  0.60807155    -0.38970
O411        O  0.59355764  0.82300787  0.60935062    -0.39670
O412        O  0.60980181  0.85367238  0.55452799    -0.39740
C413        C  0.34959095  0.40067497  0.57143102    -0.12020
C414        C  0.39048170  0.44856132  0.57758303     0.04990
C415        C  0.39225415  0.47437170  0.60982252    -0.07310
C416        C  0.35313546  0.45106426  0.63518688    -0.08050
C417        C  0.31208978  0.40307024  0.62887290    -0.02600
C418        C  0.31007789  0.37813627  0.59616170     0.04220
N419        N  0.26745221  0.33086004  0.58682421     0.66720
H420        H  0.34769065  0.38103272  0.54653753     0.15620
H421        H  0.35529174  0.47029144  0.66032543     0.15330
N422        N  0.43443045  0.52244917  0.61845316     0.74430
O423        O  0.22460334  0.32610023  0.58575693    -0.39020
O424        O  0.27326660  0.29572520  0.57543851    -0.38970
O425        O  0.44674049  0.55919128  0.59749422    -0.39670
O426        O  0.45336969  0.53033058  0.64989582    -0.39740
C427        C  0.38050410  0.03676294  0.62700269    -0.12020
C428        C  0.40520129  0.08773218  0.63585175     0.04990
C429        C  0.45047634  0.12057983  0.61808052    -0.07310
C430        C  0.46912668  0.10222895  0.59116276    -0.08050
C431        C  0.44351397  0.05130298  0.58139283    -0.02600
C432        C  0.39886349  0.01827193  0.60021052     0.04220
N433        N  0.37134862  0.96578373  0.59267331     0.66720
H434        H  0.34605281  0.01082916  0.64078325     0.15620
H435        H  0.50346646  0.12835983  0.57736706     0.15330
N436        N  0.47651118  0.17302852  0.62546102     0.74430
O437        O  0.36733989  0.93514396  0.61700913    -0.39020
O438        O  0.34260852  0.95009605  0.56546333    -0.38970
O439        O  0.51250874  0.19105886  0.64761889    -0.39670
O440        O  0.47056283  0.20202671  0.60461763    -0.39740
C441        C  0.40745997  0.95250960  0.88432813    -0.12020
C442        C  0.39089537  0.94442910  0.92048975     0.04990
C443        C  0.33941151  0.92090142  0.92787733    -0.07310
C444        C  0.30539023  0.90494262  0.89896975    -0.08050
C445        C  0.32169300  0.91366003  0.86269224    -0.02600
C446        C  0.37360720  0.93802866  0.85510612     0.04220
N447        N  0.39296552  0.95144809  0.81863544     0.66720
H448        H  0.44724592  0.97131804  0.87887588     0.15620
H449        H  0.26581909  0.88769234  0.90486753     0.15330
N450        N  0.32134782  0.91590629  0.96438542     0.74430
O451        O  0.43454761  0.99061692  0.81312380    -0.39020
O452        O  0.37145989  0.92223766  0.79233447    -0.38970
O453        O  0.33774124  0.95426965  0.98418179    -0.39670
O454        O  0.28294612  0.87592500  0.97432346    -0.39740
C455        C  0.62406483  0.02084255  0.91001743    -0.12020
C456        C  0.60668737  0.05290129  0.92083579     0.04990
C457        C  0.62636305  0.09984570  0.90316680    -0.07310
C458        C  0.66331904  0.11374531  0.87626133    -0.08050
C459        C  0.68142722  0.08200140  0.86636356    -0.02600
C460        C  0.66000054  0.03414698  0.88269354     0.04220
N461        N  0.67199270  0.99739458  0.87062529     0.66720
H462        H  0.60854431  0.98404466  0.92215600     0.15620
H463        H  0.67907750  0.15042123  0.86385997     0.15330
N464        N  0.60981492  0.13408540  0.91210351     0.74430
O465        O  0.67674516  0.96959230  0.89349014    -0.39020
O466        O  0.67043765  0.98760975  0.83714002    -0.38970
O467        O  0.62134459  0.15610631  0.94245908    -0.39670
O468        O  0.59269573  0.14959715  0.88738336    -0.39740
C469        C  0.69420854  0.60521720  0.40002104    -0.12020
C470        C  0.67980299  0.59011074  0.36392513     0.04990
C471        C  0.62895543  0.55588279  0.35604954    -0.07310
C472        C  0.59413296  0.53758012  0.38466948    -0.08050
C473        C  0.60867170  0.55374334  0.42051038    -0.02600
C474        C  0.65913043  0.58819866  0.42822726     0.04220
N475        N  0.67495801  0.60792109  0.46412599     0.66720
H476        H  0.73287218  0.63239348  0.40607419     0.15620
H477        H  0.55510465  0.51153764  0.37878174     0.15330
N478        N  0.61125277  0.54233449  0.31935457     0.74430
O479        O  0.71481651  0.61260806  0.47703591    -0.39020
O480        O  0.65477275  0.62942490  0.47977105    -0.38970
O481        O  0.63076083  0.52487378  0.29833485    -0.39670
O482        O  0.57125701  0.54044333  0.30976087    -0.39740
C483        C  0.39074299  0.03048909  0.42039675    -0.12020
C484        C  0.44265029  0.05119147  0.42093375     0.04990
C485        C  0.47222054  0.08940738  0.39561582    -0.07310
C486        C  0.44889099  0.10524245  0.37037842    -0.08050
C487        C  0.39670466  0.08425471  0.36970886    -0.02600
C488        C  0.36765370  0.04726692  0.39605807     0.04220
N489        N  0.31522583  0.02840946  0.40041197     0.66720
H490        H  0.36779276  0.00248713  0.44043767     0.15620
H491        H  0.47191619  0.13319864  0.35040809     0.15330
N492        N  0.52551026  0.11135054  0.39410499     0.74430
O493        O  0.28557896  0.98196590  0.40392208    -0.39020
O494        O  0.29980881  0.05828307  0.40700712    -0.38970
O495        O  0.54455528  0.08376821  0.39279916    -0.39670
O496        O  0.55304308  0.15776281  0.38867772    -0.39740
C497        C  0.33079202  0.44979281  0.37955025    -0.12020
C498        C  0.31822642  0.40325863  0.36454263     0.04990
C499        C  0.34439885  0.37932110  0.37618839    -0.07310
C500        C  0.38014258  0.40100723  0.40382295    -0.08050
C501        C  0.39183517  0.44684131  0.41986483    -0.02600
C502        C  0.36675517  0.47162024  0.40723531     0.04220
N503        N  0.37542672  0.51763378  0.42299558     0.66720
H504        H  0.31068718  0.46826167  0.37101617     0.15620
H505        H  0.39989029  0.38211429  0.41217971     0.15330
N506        N  0.33685783  0.33418464  0.35934687     0.74430
O507        O  0.38246943  0.55344027  0.40255366    -0.39020
O508        O  0.36612437  0.51899487  0.45628159    -0.38970
O509        O  0.33606271  0.33065896  0.32508988    -0.39670
O510        O  0.33774972  0.30064521  0.37836435    -0.39740
C511        C  0.56885433  0.97374779  0.38833464    -0.12020
C512        C  0.55472073  0.94767189  0.42148346     0.04990
C513        C  0.56121915  0.90607468  0.42669413    -0.07310
C514        C  0.58283848  0.89253253  0.39878512    -0.08050
C515        C  0.59722805  0.91878566  0.36576898    -0.02600
C516        C  0.58985872  0.95982534  0.36008885     0.04220
N517        N  0.60293501  0.98755826  0.32630712     0.66720
H518        H  0.56377959  0.00560638  0.38462359     0.15620
H519        H  0.58869868  0.86119452  0.40289705     0.15330
N520        N  0.54864434  0.87876928  0.46044673     0.74430
O521        O  0.58210485  0.01207124  0.31748620    -0.39020
O522        O  0.63706692  0.99026504  0.30608635    -0.38970
O523        O  0.50596185  0.86213618  0.47435693    -0.39670
O524        O  0.57694201  0.86415550  0.47313215    -0.39740
C525        C  0.36303705  0.93129023  0.14372210    -0.12020
C526        C  0.31314835  0.91015629  0.13262680     0.04990
C527        C  0.30120903  0.90140609  0.09521675    -0.07310
C528        C  0.33985669  0.91665302  0.06980299    -0.08050
C529        C  0.38986507  0.94071595  0.08065327    -0.02600
C530        C  0.40161935  0.94604058  0.11810286     0.04220
N531        N  0.45188573  0.96462453  0.13044310     0.66720
H532        H  0.37185264  0.93602626  0.17251304     0.15620
H533        H  0.33074507  0.90994137  0.04128043     0.15330
N534        N  0.25043342  0.87546690  0.08251527     0.74430
O535        O  0.46654050  0.98857221  0.15995277    -0.39020
O536        O  0.47877744  0.95010798  0.11522402    -0.38970
O537        O  0.22079988  0.89030407  0.09130478    -0.39670
O538        O  0.23747463  0.84274270  0.05797421    -0.39740
C539        C  0.59570254  0.05080517  0.11503342    -0.12020
C540        C  0.60878818  0.05742873  0.07812961     0.04990
C541        C  0.65961756  0.08049420  0.06800979    -0.07310
C542        C  0.69584417  0.09398949  0.09537334    -0.08050
C543        C  0.68257276  0.08601852  0.13231594    -0.02600
C544        C  0.63179536  0.06384766  0.14237483     0.04220
N545        N  0.61590643  0.05135601  0.17964823     0.66720
H546        H  0.55681245  0.03359857  0.12254887     0.15620
H547        H  0.73495477  0.11173200  0.08790120     0.15330
N548        N  0.67508803  0.09094995  0.03048794     0.74430
O549        O  0.57701985  0.05071370  0.19054062    -0.39020
O550        O  0.63612288  0.03394247  0.20019722    -0.38970
O551        O  0.65164552  0.10263555  0.00823141    -0.39670
O552        O  0.71566132  0.09448739  0.02047235    -0.39740
C553        C  0.88410994  0.55203108  0.12134121    -0.12020
C554        C  0.91786265  0.60003046  0.13442744     0.04990
C555        C  0.96717431  0.62553920  0.12065906    -0.07310
C556        C  0.98049585  0.60370722  0.09284486    -0.08050
C557        C  0.94649191  0.55619172  0.07884930    -0.02600
C558        C  0.89756173  0.52996600  0.09365377     0.04220
N559        N  0.86049735  0.48173880  0.08047012     0.66720
H560        H  0.84613376  0.53224051  0.13158258     0.15620
H561        H  0.01854815  0.62380527  0.08281567     0.15330
N562        N  0.00489161  0.67239615  0.13565874     0.74430
O563        O  0.83661608  0.44639378  0.10273420    -0.39020
O564        O  0.84469880  0.47730231  0.04822965    -0.38970
O565        O  0.01028253  0.67781426  0.16972175    -0.39670
O566        O  0.03713138  0.70582596  0.11509776    -0.39740
C567        C  0.06853651  0.41263681  0.06871589    -0.12020
C568        C  0.04986935  0.44325303  0.07973719     0.04990
C569        C  0.05164940  0.45602104  0.11686090    -0.07310
C570        C  0.07206007  0.43718546  0.14217852    -0.08050
C571        C  0.08953440  0.40538111  0.13127003    -0.02600
C572        C  0.08896680  0.39392492  0.09394971     0.04220
N573        N  0.11046416  0.36503846  0.08112181     0.66720
H574        H  0.06822814  0.40427619  0.04004354     0.15620
H575        H  0.07204473  0.44531167  0.17085209     0.15330
N576        N  0.03171903  0.48645455  0.12944070     0.74430
O577        O  0.09423926  0.33942502  0.05241417    -0.39020
O578        O  0.14960695  0.36998320  0.09563416    -0.38970
O579        O  0.99393890  0.48389766  0.11435397    -0.39670
O580        O  0.04854285  0.51206662  0.15809562    -0.39740
C581        C  0.08677233  0.47318256  0.89690148    -0.12020
C582        C  0.04956070  0.44098642  0.92136042     0.04990
C583        C  0.03032170  0.38912784  0.91838282    -0.07310
C584        C  0.04764614  0.37051807  0.89106092    -0.08050
C585        C  0.08501073  0.40228587  0.86625101    -0.02600
C586        C  0.10502513  0.45467397  0.86976356     0.04220
N587        N  0.14494728  0.49001657  0.84724688     0.66720
H588        H  0.10231840  0.51326603  0.89908319     0.15620
H589        H  0.03094856  0.33038920  0.88967441     0.15330
N590        N  0.99459563  0.35468743  0.94386739     0.74430
O591        O  0.13974966  0.52198431  0.82943351    -0.39020
O592        O  0.18808174  0.49611317  0.85120136    -0.38970
O593        O  0.94855836  0.33604840  0.93768266    -0.39670
O594        O  0.00860733  0.33606611  0.96851588    -0.39740
C595        C  0.96019462  0.60607637  0.86627351    -0.12020
C596        C  0.90950458  0.59166373  0.86586009     0.04990
C597        C  0.87704094  0.55741509  0.89222165    -0.07310
C598        C  0.89626815  0.53891801  0.91861831    -0.08050
C599        C  0.94721356  0.55398109  0.91945866    -0.02600
C600        C  0.97936257  0.58771939  0.89267891     0.04220
N601        N  0.03129156  0.60314799  0.89140984     0.66720
H602        H  0.98534903  0.63257341  0.84622619     0.15620
H603        H  0.87126064  0.51324651  0.93909424     0.15330
N604        N  0.82544667  0.54352940  0.89417760     0.74430
O605        O  0.04808387  0.59095575  0.86451082    -0.39020
O606        O  0.06147362  0.63729248  0.91242398    -0.38970
O607        O  0.79659511  0.52110662  0.86787086    -0.39670
O608        O  0.80690749  0.54525913  0.92432836    -0.39740
C609        C  0.43736989  0.34713063  0.07185167    -0.12020
C610        C  0.44614624  0.39493056  0.08060163     0.04990
C611        C  0.43755548  0.40503038  0.11650101    -0.07310
C612        C  0.42032918  0.36697889  0.14279766    -0.08050
C613        C  0.40976392  0.31869476  0.13373967    -0.02600
C614        C  0.41859132  0.30843603  0.09785757     0.04220
N615        N  0.40855075  0.25939490  0.08730327     0.66720
H616        H  0.44470413  0.33986632  0.04437032     0.15620
H617        H  0.41268057  0.37442862  0.17013783     0.15330
N618        N  0.44570025  0.45328862  0.12670370     0.74430
O619        O  0.40004216  0.24603306  0.05438285    -0.39020
O620        O  0.41201577  0.23072957  0.11008246    -0.38970
O621        O  0.42491230  0.47272662  0.10901249    -0.39670
O622        O  0.46597234  0.47217358  0.15684977    -0.39740
C623        C  0.45864951  0.35844662  0.92044906    -0.12020
C624        C  0.44471832  0.39513048  0.92051087     0.04990
C625        C  0.41056258  0.39296451  0.89400445    -0.07310
C626        C  0.38902292  0.35254935  0.86973934    -0.08050
C627        C  0.40212660  0.31537228  0.87021065    -0.02600
C628        C  0.43754103  0.31827962  0.89581967     0.04220
N629        N  0.45044180  0.27979758  0.89864870     0.66720
H630        H  0.48449358  0.35980628  0.94090467     0.15620
H631        H  0.36283235  0.35084623  0.84943775     0.15330
N632        N  0.39908601  0.43231050  0.89017596     0.74430
O633        O  0.49295830  0.29034048  0.91028497    -0.39020
O634        O  0.41765053  0.23441438  0.89414664    -0.38970
O635        O  0.43346990  0.47752018  0.89199139    -0.39670
O636        O  0.35637484  0.42233160  0.87941748    -0.39740
C637        C  0.53053067  0.59957459  0.11344904    -0.12020
C638        C  0.55722900  0.61079294  0.08057179     0.04990
C639        C  0.60286969  0.65670025  0.07720093    -0.07310
C640        C  0.62079026  0.68889290  0.10720460    -0.08050
C641        C  0.59538196  0.67678040  0.14060752    -0.02600
C642        C  0.54938522  0.63134277  0.14384530     0.04220
N643        N  0.52284125  0.61539765  0.17786156     0.66720
H644        H  0.49571503  0.56448413  0.11601478     0.15620
H645        H  0.65543561  0.72420937  0.10434387     0.15330
N646        N  0.63048905  0.67307239  0.04356116     0.74430
O647        O  0.47582416  0.58838834  0.17803068    -0.39020
O648        O  0.54632713  0.62163622  0.20728126    -0.38970
O649        O  0.65525851  0.71919937  0.03617287    -0.39670
O650        O  0.63650416  0.64324188  0.02389170    -0.39740
C651        C  0.54986047  0.58920956  0.88318784    -0.12020
C652        C  0.55254363  0.60753413  0.91851070     0.04990
C653        C  0.57454382  0.65952275  0.92415759    -0.07310
C654        C  0.59396567  0.69187926  0.89419097    -0.08050
C655        C  0.59126087  0.67371597  0.85888398    -0.02600
C656        C  0.56856354  0.62156306  0.85298909     0.04220
N657        N  0.56560944  0.60090723  0.81728223     0.66720
H658        H  0.53316075  0.54922973  0.87923152     0.15620
H659        H  0.61176882  0.73193014  0.89840540     0.15330
N660        N  0.57917323  0.68034842  0.95989382     0.74430
O661        O  0.56154791  0.55844122  0.81395341    -0.39020
O662        O  0.56311013  0.62285263  0.78906975    -0.38970
O663        O  0.61518517  0.72349533  0.96697983    -0.39670
O664        O  0.54485577  0.65845980  0.98314257    -0.39740
C665        C  0.91104721  0.38329192  0.39833729    -0.12020
C666        C  0.94828412  0.38865232  0.42277255     0.04990
C667        C  0.96879989  0.35733901  0.41884005    -0.07310
C668        C  0.95200107  0.32208963  0.39078653    -0.08050
C669        C  0.91519720  0.31680789  0.36578899    -0.02600
C670        C  0.89506170  0.34871973  0.36956684     0.04220
N671        N  0.86079354  0.34901472  0.34356431     0.66720
H672        H  0.89584158  0.40791975  0.40050701     0.15620
H673        H  0.96738530  0.29767696  0.38956521     0.15330
N674        N  0.00553279  0.35941356  0.44368925     0.74430
O675        O  0.82214256  0.34889530  0.35440211    -0.39020
O676        O  0.87386025  0.35927506  0.31068156    -0.38970
O677        O  0.99688873  0.35479802  0.47747386    -0.39670
O678        O  0.04311899  0.35841570  0.43167373    -0.39740
C679        C  0.95689999  0.35867652  0.63862392    -0.12020
C680        C  0.90966551  0.31604957  0.63395975     0.04990
C681        C  0.88101128  0.31206230  0.60285482    -0.07310
C682        C  0.90098888  0.35069033  0.57689357    -0.08050
C683        C  0.94877427  0.39279456  0.58108798    -0.02600
C684        C  0.97683376  0.39706980  0.61259091     0.04220
N685        N  0.02460276  0.44060516  0.61932321     0.66720
H686        H  0.97893050  0.36166820  0.66242428     0.15620
H687        H  0.87928769  0.34753656  0.55286631     0.15330
N688        N  0.83293144  0.26851619  0.59625641     0.74430
O689        O  0.03231649  0.46358559  0.64912294    -0.39020
O690        O  0.06139934  0.44976312  0.59942709    -0.38970
O691        O  0.80143823  0.24899242  0.62163095    -0.39670
O692        O  0.81960139  0.25301821  0.56414254    -0.39740
C693        C  0.01872314  0.60669647  0.60528109    -0.12020
C694        C  0.05281874  0.60973907  0.57887255     0.04990
C695        C  0.10345308  0.64833404  0.58131150    -0.07310
C696        C  0.11848807  0.68251482  0.61023275    -0.08050
C697        C  0.08401820  0.68004650  0.63598033    -0.02600
C698        C  0.03369958  0.64098388  0.63406390     0.04220
N699        N  0.99793656  0.63455057  0.66164753     0.66720
H700        H  0.98027362  0.57633304  0.60408463     0.15620
H701        H  0.15684088  0.71311436  0.61143867     0.15330
N702        N  0.13924557  0.65540735  0.55366744     0.74430
O703        O  0.95204079  0.61347855  0.65397488    -0.39020
O704        O  0.01111164  0.64416964  0.69455039    -0.38970
O705        O  0.12793396  0.65327636  0.52043085    -0.39670
O706        O  0.18422585  0.67133146  0.56221529    -0.39740
C707        C  0.08563834  0.64112842  0.36045129    -0.12020
C708        C  0.08529241  0.68516361  0.36877389     0.04990
C709        C  0.06908092  0.69037756  0.40361365    -0.07310
C710        C  0.05220171  0.65101662  0.42864137    -0.08050
C711        C  0.05274979  0.60720113  0.42044523    -0.02600
C712        C  0.06967705  0.60192325  0.38583947     0.04220
N713        N  0.06800436  0.55645218  0.37499104     0.66720
H714        H  0.09752005  0.63677967  0.33366403     0.15620
H715        H  0.03979460  0.65521061  0.45529996     0.15330
N716        N  0.07135772  0.73591467  0.41466008     0.74430
O717        O  0.05726642  0.54134139  0.34255091    -0.39020
O718        O  0.08299638  0.53462718  0.39611097    -0.38970
O719        O  0.03631484  0.73428838  0.43317459    -0.39670
O720        O  0.11104289  0.77738711  0.41019439    -0.39740
loop_ 
_geom_bond_atom_site_label_1 
_geom_bond_atom_site_label_2 
_geom_bond_distance 
_geom_bond_site_symmetry_2 
_ccdc_geom_bond_type 
O1           Cu9   2.004       .  S
O1           C11   1.277       .  A
O2           Cu9   2.004       .  S
O2           C12   1.278   1_455  A
O3           Cu9   2.002       .  S
O3           C13   1.276       .  A
O4           Cu9   2.005       .  S
O4           C14   1.276   1_455  A
O5          Cu10   2.008       .  S
O5           C14   1.278       .  A
O6          Cu10   2.007       .  S
O6           C13   1.278   1_655  A
O7          Cu10   2.010       .  S
O7           C12   1.278       .  A
O8          Cu10   2.011       .  S
O8           C11   1.279   1_655  A
Cu9         Cu10   2.373   1_455  S
C11         C694   1.480       .  S
C12         C666   1.484       .  S
C13         C711   1.471       .  S
C14         C683   1.476       .  S
O15         Cu23   2.011       .  S
O15          C25   1.277       .  A
O16         Cu23   2.010   1_556  S
O16          C26   1.277       .  A
O17         Cu23   2.014   1_556  S
O17          C27   1.279       .  A
O18         Cu23   2.017       .  S
O18          C28   1.278       .  A
O19         Cu24   2.007       .  S
O19          C28   1.277       .  A
O20         Cu24   2.004   1_556  S
O20          C27   1.277       .  A
O21         Cu24   2.014   1_556  S
O21          C26   1.278       .  A
O22         Cu24   2.012       .  S
O22          C25   1.277       .  A
Cu23        Cu24   2.375       .  S
C25         C610   1.473       .  S
C26         C652   1.471       .  S
C27         C624   1.481       .  S
C28         C638   1.478       .  S
O29         Cu37   2.006   1_554  S
O29          C39   1.279   1_455  A
O30         Cu37   2.010       .  S
O30          C40   1.278       .  A
O31         Cu37   1.999       .  S
O31          C41   1.276   1_455  A
O32         Cu37   2.007   1_554  S
O32          C42   1.276       .  A
O33         Cu38   2.007       .  S
O33          C42   1.277   1_655  A
O34         Cu38   2.010   1_556  S
O34          C41   1.278       .  A
O35         Cu38   2.001   1_556  S
O35          C40   1.277   1_655  A
O36         Cu38   2.004       .  S
O36          C39   1.276       .  A
Cu37        Cu38   2.371   1_456  S
C39         C557   1.490       .  S
C40         C582   1.481       .  S
C41         C599   1.480       .  S
C42         C568   1.467       .  S
N43          N44   1.324       .  A
N43          C47   1.347       .  A
N43         Cu51   2.087       .  S
N44          C45   1.343       .  A
N44         Cu50   2.066       .  S
C45          C46   1.378       .  A
C45          H48   1.082       .  S
C46         C543   1.475       .  S
C46          C47   1.385       .  A
C47          H49   1.083       .  S
Cu50         N53   2.065       .  S
Cu51         N61   2.086       .  S
Cu52         N54   2.061       .  S
Cu52         N60   2.061       .  S
N53          N54   1.319       .  A
N53          C57   1.344       .  A
N54          C55   1.343       .  A
C55          C56   1.384       .  A
C55          H58   1.082       .  S
C56          C91   1.485       .  S
C56          C57   1.385       .  A
C57          H59   1.082       .  S
N60          N61   1.319       .  A
N60          C64   1.338       .  A
N61          C62   1.348       .  A
C62          C63   1.396       .  A
C62          H65   1.080       .  S
C63         C669   1.499       .  S
C63          C64   1.389       .  A
C64          H66   1.081       .  S
N67          N68   1.322       .  A
N67          C71   1.347       .  A
N67         Cu75   2.081       .  S
N68          C69   1.340       .  A
N68         Cu74   2.062       .  S
C69          C70   1.382       .  A
C69          H72   1.082       .  S
C70         C708   1.481       .  S
C70          C71   1.387       .  A
C71          H73   1.083       .  S
Cu74         N77   2.062       .  S
Cu75         N85   2.081       .  S
Cu76         N78   2.064       .  S
Cu76         N84   2.064       .  S
N77          N78   1.319       .  A
N77          C81   1.343       .  A
N78          C79   1.344       .  A
C79          C80   1.385       .  A
C79          H82   1.082       .  S
C80          C94   1.487       .  S
C80          C81   1.384       .  A
C81          H83   1.082       .  S
N84          N85   1.323       .  A
N84          C88   1.341       .  A
N85          C86   1.347       .  A
C86          C87   1.384       .  A
C86          H89   1.082       .  S
C87         C526   1.472       .  S
C87          C88   1.379       .  A
C88          H90   1.082       .  S
C91          C92   1.416   1_545  A
C91          C96   1.417   1_655  A
C92         C110   1.488       .  S
C92          C93   1.416       .  A
C93         C182   1.487       .  S
C93          C94   1.418   1_655  A
C94          C95   1.419   1_565  A
C95         C158   1.491       .  S
C95          C96   1.416       .  A
C96         C134   1.484       .  S
N97          N98   1.322       .  A
N97         C101   1.349       .  A
N97        Cu105   2.084       .  S
N98          C99   1.339       .  A
N98        Cu104   2.062       .  S
C99         C100   1.382       .  A
C99         H102   1.083       .  S
C100        C641   1.483       .  S
C100        C101   1.389       .  A
C101        H103   1.083       .  S
Cu104       N107   2.062       .  S
Cu105       N115   2.084       .  S
Cu106       N108   2.066       .  S
Cu106       N114   2.068       .  S
N107        N108   1.319       .  A
N107        C111   1.343       .  A
N108        C109   1.344       .  A
C109        C110   1.385       .  A
C109        H112   1.082       .  S
C110        C111   1.385       .  A
C111        H113   1.082       .  S
N114        N115   1.325       .  A
N114        C118   1.342       .  A
N115        C116   1.347       .  A
C116        C117   1.382       .  A
C116        H119   1.082       .  S
C117        C515   1.469       .  S
C117        C118   1.377       .  A
C118        H120   1.082       .  S
N121        N122   1.322       .  A
N121        C125   1.348       .  A
N121       Cu129   2.083       .  S
N122        C123   1.341       .  A
N122       Cu128   2.066       .  S
C123        C124   1.383       .  A
C123        H126   1.082       .  S
C124        C498   1.484       .  S
C124        C125   1.388       .  A
C125        H127   1.082       .  S
Cu128       N131   2.066       .  S
Cu129       N139   2.083       .  S
Cu130       N132   2.065       .  S
Cu130       N138   2.066       .  S
N131        N132   1.320       .  A
N131        C135   1.344       .  A
N132        C133   1.344       .  A
C133        C134   1.384       .  A
C133        H136   1.082       .  S
C134        C135   1.383       .  A
C135        H137   1.082       .  S
N138        N139   1.323       .  A
N138        C142   1.342       .  A
N139        C140   1.348       .  A
C140        C141   1.385       .  A
C140        H143   1.082       .  S
C141        C571   1.475       .  S
C141        C142   1.380       .  A
C142        H144   1.083       .  S
N145        N146   1.326       .  A
N145        C149   1.349       .  A
N145       Cu153   2.091       .  S
N146        C147   1.343       .  A
N146       Cu152   2.075       .  S
C147        C148   1.378       .  A
C147        H150   1.082       .  S
C148        C613   1.473       .  S
C148        C149   1.383       .  A
C149        H151   1.083       .  S
Cu152       N155   2.073       .  S
Cu153       N163   2.090       .  S
Cu154       N156   2.060       .  S
Cu154       N162   2.059       .  S
N155        N156   1.319       .  A
N155        C159   1.346       .  A
N156        C157   1.343       .  A
C157        C158   1.384       .  A
C157        H160   1.082       .  S
C158        C159   1.388       .  A
C159        H161   1.082       .  S
N162        N163   1.320       .  A
N162        C166   1.339       .  A
N163        C164   1.349       .  A
C164        C165   1.395       .  A
C164        H167   1.082       .  S
C165        C487   1.496       .  S
C165        C166   1.386       .  A
C166        H168   1.080       .  S
N169        N170   1.323       .  A
N169        C173   1.346       .  A
N169       Cu177   2.076       .  S
N170        C171   1.342       .  A
N170       Cu176   2.072       .  S
C171        C172   1.382       .  A
C171        H174   1.083       .  S
C172        C470   1.476       .  S
C172        C173   1.384       .  A
C173        H175   1.082       .  S
Cu176       N179   2.072       .  S
Cu177       N187   2.076       .  S
Cu178       N180   2.064       .  S
Cu178       N186   2.064       .  S
N179        N180   1.320       .  A
N179        C183   1.345       .  A
N180        C181   1.343       .  A
C181        C182   1.383       .  A
C181        H184   1.082       .  S
C182        C183   1.386       .  A
C183        H185   1.082       .  S
N186        N187   1.322       .  A
N186        C190   1.341       .  A
N187        C188   1.347       .  A
C188        C189   1.387       .  A
C188        H191   1.082       .  S
C189        C554   1.482       .  S
C189        C190   1.383       .  A
C190        H192   1.082       .  S
N193        N194   1.324       .  A
N193        C197   1.346       .  A
N193       Cu201   2.078       .  S
N194        C195   1.344       .  A
N194       Cu200   2.074       .  S
C195        C196   1.380       .  A
C195        H198   1.083       .  S
C196        C680   1.473       .  S
C196        C197   1.383       .  A
C197        H199   1.083       .  S
Cu200       N203   2.074       .  S
Cu201       N211   2.078       .  S
Cu202       N204   2.073       .  S
Cu202       N210   2.073       .  S
N203        N204   1.321       .  A
N203        C207   1.345       .  A
N204        C205   1.346       .  A
C205        C206   1.384       .  A
C205        H208   1.082       .  S
C206        C241   1.488       .  S
C206        C207   1.385       .  A
C207        H209   1.082       .  S
N210        N211   1.322       .  A
N210        C214   1.341       .  A
N211        C212   1.348       .  A
C212        C213   1.388       .  A
C212        H215   1.082       .  S
C213        C459   1.488       .  S
C213        C214   1.386       .  A
C214        H216   1.081       .  S
N217        N218   1.323       .  A
N217        C221   1.347       .  A
N217       Cu225   2.075       .  S
N218        C219   1.343       .  A
N218       Cu224   2.070       .  S
C219        C220   1.381       .  A
C219        H222   1.082       .  S
C220        C697   1.474       .  S
C220        C221   1.383       .  A
C221        H223   1.082       .  S
Cu224       N227   2.069       .  S
Cu225       N235   2.075       .  S
Cu226       N228   2.078       .  S
Cu226       N234   2.078       .  S
N227        N228   1.321       .  A
N227        C231   1.345       .  A
N228        C229   1.345       .  A
C229        C230   1.387       .  A
C229        H232   1.082       .  S
C230        C244   1.491       .  S
C230        C231   1.384       .  A
C231        H233   1.082       .  S
N234        N235   1.323       .  A
N234        C238   1.344       .  A
N235        C236   1.346       .  A
C236        C237   1.383       .  A
C236        H239   1.083       .  S
C237        C445   1.476       .  S
C237        C238   1.383       .  A
C238        H240   1.082       .  S
C241        C242   1.417   1_545  A
C241        C246   1.416   1_655  A
C242        C308   1.490       .  S
C242        C243   1.421       .  A
C243        C332   1.486       .  S
C243        C244   1.419   1_655  A
C244        C245   1.417   1_565  A
C245        C260   1.488       .  S
C245        C246   1.417       .  A
C246        C284   1.485       .  S
N247        N248   1.323       .  A
N247        C251   1.348       .  A
N247       Cu255   2.087       .  S
N248        C249   1.342       .  A
N248       Cu254   2.065       .  S
C249        C250   1.379       .  A
C249        H252   1.083       .  S
C250        C627   1.476       .  S
C250        C251   1.386       .  A
C251        H253   1.083       .  S
Cu254       N257   2.064       .  S
Cu255       N265   2.087       .  S
Cu256       N258   2.072       .  S
Cu256       N264   2.073       .  S
N257        N258   1.320       .  A
N257        C261   1.343       .  A
N258        C259   1.345       .  A
C259        C260   1.386       .  A
C259        H262   1.082       .  S
C260        C261   1.384       .  A
C261        H263   1.082       .  S
N264        N265   1.323       .  A
N264        C268   1.341       .  A
N265        C266   1.349       .  A
C266        C267   1.388       .  A
C266        H269   1.081       .  S
C267        C428   1.484       .  S
C267        C268   1.383       .  A
C268        H270   1.082       .  S
N271        N272   1.322       .  A
N271        C275   1.348       .  A
N271       Cu279   2.084       .  S
N272        C273   1.339       .  A
N272       Cu278   2.059       .  S
C273        C274   1.382       .  A
C273        H276   1.082       .  S
C274        C417   1.482       .  S
C274        C275   1.388       .  A
C275        H277   1.082       .  S
Cu278       N281   2.058       .  S
Cu279       N289   2.084       .  S
Cu280       N282   2.064       .  S
Cu280       N288   2.065       .  S
N281        N282   1.319       .  A
N281        C285   1.343       .  A
N282        C283   1.344       .  A
C283        C284   1.385       .  A
C283        H286   1.082       .  S
C284        C285   1.384       .  A
C285        H287   1.082       .  S
N288        N289   1.320       .  A
N288        C292   1.338       .  A
N289        C290   1.348       .  A
C290        C291   1.396       .  A
C290        H293   1.079       .  S
C291        C585   1.501       .  S
C291        C292   1.390       .  A
C292        H294   1.080       .  S
N295        N296   1.323       .  A
N295        C299   1.347       .  A
N295       Cu303   2.077       .  S
N296        C297   1.343       .  A
N296       Cu302   2.070       .  S
C297        C298   1.380       .  A
C297        H300   1.082       .  S
C298        C655   1.471       .  S
C298        C299   1.384       .  A
C299        H301   1.083       .  S
Cu302       N305   2.070       .  S
Cu303       N313   2.076       .  S
Cu304       N306   2.074       .  S
Cu304       N312   2.074       .  S
N305        N306   1.321       .  A
N305        C309   1.345       .  A
N306        C307   1.345       .  A
C307        C308   1.386       .  A
C307        H310   1.082       .  S
C308        C309   1.385       .  A
C309        H311   1.082       .  S
N312        N313   1.324       .  A
N312        C316   1.344       .  A
N313        C314   1.346       .  A
C314        C315   1.381       .  A
C314        H317   1.083       .  S
C315        C400   1.470       .  S
C315        C316   1.379       .  A
C316        H318   1.082       .  S
N319        N320   1.322       .  A
N319        C323   1.347       .  A
N319       Cu327   2.072       .  S
N320        C321   1.340       .  A
N320       Cu326   2.065       .  S
C321        C322   1.382       .  A
C321        H324   1.082       .  S
C322        C386   1.478       .  S
C322        C323   1.385       .  A
C323        H325   1.082       .  S
Cu326       N329   2.065       .  S
Cu327       N337   2.073       .  S
Cu328       N330   2.069       .  S
Cu328       N336   2.070       .  S
N329        N330   1.320       .  A
N329        C333   1.344       .  A
N330        C331   1.344       .  A
C331        C332   1.385       .  A
C331        H334   1.082       .  S
C332        C333   1.384       .  A
C333        H335   1.082       .  S
N336        N337   1.323       .  A
N336        C340   1.343       .  A
N337        C338   1.345       .  A
C338        C339   1.383       .  A
C338        H341   1.082       .  S
C339        C596   1.474       .  S
C339        C340   1.381       .  A
C340        H342   1.083       .  S
O343       Cu351   2.017       .  S
O343        C353   1.279   1_545  A
O344       Cu351   2.020       .  S
O344        C354   1.280       .  A
O345       Cu351   2.009       .  S
O345        C355   1.277   1_545  A
O346       Cu351   2.010       .  S
O346        C356   1.277       .  A
O347       Cu352   2.008       .  S
O347        C356   1.279   1_565  A
O348       Cu352   2.006       .  S
O348        C355   1.277       .  A
O349       Cu352   1.999       .  S
O349        C354   1.276   1_565  A
O350       Cu352   1.999       .  S
O350        C353   1.275       .  A
Cu351      Cu352   2.371   1_545  S
C353        C512   1.473       .  S
C354        C431   1.491       .  S
C355        C403   1.470       .  S
C356        C484   1.485       .  S
O357       Cu365   2.027   1_556  S
O357        C367   1.279       .  A
O358       Cu365   2.025       .  S
O358        C368   1.280   1_545  A
O359       Cu365   2.007       .  S
O359        C369   1.276       .  A
O360       Cu365   2.005   1_556  S
O360        C370   1.276   1_545  A
O361       Cu366   2.021   1_556  S
O361        C370   1.279       .  A
O362       Cu366   2.018       .  S
O362        C369   1.279   1_565  A
O363       Cu366   2.003       .  S
O363        C368   1.275       .  A
O364       Cu366   1.992   1_556  S
O364        C367   1.277   1_565  A
Cu365      Cu366   2.374   1_545  S
C367        C456   1.493       .  S
C368        C529   1.472       .  S
C369        C540   1.471       .  S
C370        C442   1.471       .  S
O371       Cu379   2.001       .  S
O371        C381   1.278       .  A
O372       Cu379   2.007       .  S
O372        C382   1.276       .  A
O373       Cu379   2.001       .  S
O373        C383   1.278       .  A
O374       Cu379   2.014       .  S
O374        C384   1.278       .  A
O375       Cu380   2.002       .  S
O375        C384   1.276       .  A
O376       Cu380   2.007       .  S
O376        C383   1.276       .  A
O377       Cu380   2.011       .  S
O377        C382   1.278       .  A
O378       Cu380   2.016       .  S
O378        C381   1.278       .  A
Cu379      Cu380   2.373       .  S
C381        C501   1.491       .  S
C382        C389   1.471       .  S
C383        C414   1.474       .  S
C384        C473   1.469       .  S
C385        C386   1.404       .  A
C385        C390   1.409       .  A
C385        H392   1.083       .  S
C386        C387   1.412       .  A
C387        C388   1.397       .  A
C387        N394   1.439       .  S
C388        C389   1.398       .  A
C388        H393   1.078       .  S
C389        C390   1.418       .  A
C390        N391   1.444       .  S
N391        O395   1.263       .  A
N391        O396   1.262       .  A
N394        O397   1.263       .  A
N394        O398   1.263       .  A
C399        C400   1.401       .  A
C399        C404   1.405       .  A
C399        H406   1.084       .  S
C400        C401   1.413       .  A
C401        C402   1.404       .  A
C401        N408   1.442       .  S
C402        C403   1.402       .  A
C402        H407   1.084       .  S
C403        C404   1.417       .  A
C404        N405   1.442   1_565  S
N405        O409   1.263       .  A
N405        O410   1.262       .  A
N408        O411   1.263       .  A
N408        O412   1.263       .  A
C413        C414   1.400       .  A
C413        C418   1.397       .  A
C413        H420   1.085       .  S
C414        C415   1.416       .  A
C415        C416   1.406       .  A
C415        N422   1.436       .  S
C416        C417   1.405       .  A
C416        H421   1.084       .  S
C417        C418   1.414       .  A
C418        N419   1.434       .  S
N419        O423   1.262       .  A
N419        O424   1.262       .  A
N422        O425   1.262       .  A
N422        O426   1.263       .  A
C427        C428   1.402       .  A
C427        C432   1.398       .  A
C427        H434   1.084       .  S
C428        C429   1.410       .  A
C429        C430   1.405       .  A
C429        N436   1.429       .  S
C430        C431   1.409       .  A
C430        H435   1.084       .  S
C431        C432   1.418       .  A
C432        N433   1.431   1_545  S
N433        O437   1.262       .  A
N433        O438   1.262       .  A
N436        O439   1.262       .  A
N436        O440   1.262       .  A
C441        C442   1.401       .  A
C441        C446   1.407       .  A
C441        H448   1.085       .  S
C442        C443   1.407       .  A
C443        C444   1.400       .  A
C443        N450   1.432       .  S
C444        C445   1.402       .  A
C444        H449   1.085       .  S
C445        C446   1.419       .  A
C446        N447   1.441       .  S
N447        O451   1.263       .  A
N447        O452   1.261       .  A
N450        O453   1.262       .  A
N450        O454   1.263       .  A
C455        C456   1.407       .  A
C455        C460   1.399       .  A
C455        H462   1.083   1_545  S
C456        C457   1.417       .  A
C457        C458   1.407       .  A
C457        N464   1.432       .  S
C458        C459   1.406       .  A
C458        H463   1.084       .  S
C459        C460   1.414       .  A
C460        N461   1.436   1_545  S
N461        O465   1.263       .  A
N461        O466   1.263       .  A
N464        O467   1.262       .  A
N464        O468   1.262       .  A
C469        C470   1.403       .  A
C469        C474   1.399       .  A
C469        H476   1.085       .  S
C470        C471   1.417       .  A
C471        C472   1.405       .  A
C471        N478   1.436       .  S
C472        C473   1.401       .  A
C472        H477   1.085       .  S
C473        C474   1.408       .  A
C474        N475   1.433       .  S
N475        O479   1.263       .  A
N475        O480   1.262       .  A
N478        O481   1.261       .  A
N478        O482   1.263       .  A
C483        C484   1.401       .  A
C483        C488   1.399       .  A
C483        H490   1.084       .  S
C484        C485   1.417       .  A
C485        C486   1.407       .  A
C485        N492   1.437       .  S
C486        C487   1.408       .  A
C486        H491   1.082       .  S
C487        C488   1.420       .  A
C488        N489   1.433       .  S
N489        O493   1.263   1_545  A
N489        O494   1.262       .  A
N492        O495   1.262       .  A
N492        O496   1.263       .  A
C497        C498   1.403       .  A
C497        C502   1.405       .  A
C497        H504   1.084       .  S
C498        C499   1.414       .  A
C499        C500   1.400       .  A
C499        N506   1.437       .  S
C500        C501   1.406       .  A
C500        H505   1.084       .  S
C501        C502   1.419       .  A
C502        N503   1.434       .  S
N503        O507   1.262       .  A
N503        O508   1.262       .  A
N506        O509   1.263       .  A
N506        O510   1.263       .  A
C511        C512   1.402       .  A
C511        C516   1.406       .  A
C511        H518   1.084   1_565  S
C512        C513   1.414       .  A
C513        C514   1.402       .  A
C513        N520   1.438       .  S
C514        C515   1.400       .  A
C514        H519   1.085       .  S
C515        C516   1.416       .  A
C516        N517   1.445       .  S
N517        O521   1.263   1_565  A
N517        O522   1.262       .  A
N520        O523   1.262       .  A
N520        O524   1.263       .  A
C525        C526   1.403       .  A
C525        C530   1.406       .  A
C525        H532   1.084       .  S
C526        C527   1.414       .  A
C527        C528   1.400       .  A
C527        N534   1.438       .  S
C528        C529   1.398       .  A
C528        H533   1.078       .  S
C529        C530   1.411       .  A
C530        N531   1.436       .  S
N531        O535   1.263       .  A
N531        O536   1.262       .  A
N534        O537   1.261       .  A
N534        O538   1.262       .  A
C539        C540   1.400       .  A
C539        C544   1.403       .  A
C539        H546   1.080       .  S
C540        C541   1.413       .  A
C541        C542   1.405       .  A
C541        N548   1.441       .  S
C542        C543   1.403       .  A
C542        H547   1.085       .  S
C543        C544   1.413       .  A
C544        N545   1.440       .  S
N545        O549   1.263       .  A
N545        O550   1.263       .  A
N548        O551   1.262       .  A
N548        O552   1.263       .  A
C553        C554   1.403       .  A
C553        C558   1.403       .  A
C553        H560   1.084       .  S
C554        C555   1.414       .  A
C555        C556   1.400       .  A
C555        N562   1.437   1_655  S
C556        C557   1.406       .  A
C556        H561   1.084   1_655  S
C557        C558   1.419       .  A
C558        N559   1.433       .  S
N559        O563   1.262       .  A
N559        O564   1.262       .  A
N562        O565   1.263       .  A
N562        O566   1.263       .  A
C567        C568   1.399       .  A
C567        C572   1.402       .  A
C567        H574   1.084       .  S
C568        C569   1.414       .  A
C569        C570   1.406       .  A
C569        N576   1.442       .  S
C570        C571   1.403       .  A
C570        H575   1.084       .  S
C571        C572   1.415       .  A
C572        N573   1.441       .  S
N573        O577   1.263       .  A
N573        O578   1.263       .  A
N576        O579   1.262   1_455  A
N576        O580   1.263       .  A
C581        C582   1.403       .  A
C581        C586   1.406       .  A
C581        H588   1.085       .  S
C582        C583   1.407       .  A
C583        C584   1.395       .  A
C583        N590   1.430   1_455  S
C584        C585   1.410       .  A
C584        H589   1.080       .  S
C585        C586   1.421       .  A
C586        N587   1.430       .  S
N587        O591   1.262       .  A
N587        O592   1.262       .  A
N590        O593   1.262       .  A
N590        O594   1.262   1_655  A
C595        C596   1.402       .  A
C595        C600   1.399       .  A
C595        H602   1.084       .  S
C596        C597   1.412       .  A
C597        C598   1.403       .  A
C597        N604   1.435       .  S
C598        C599   1.405       .  A
C598        H603   1.084       .  S
C599        C600   1.414       .  A
C600        N601   1.432   1_655  S
N601        O605   1.262       .  A
N601        O606   1.262       .  A
N604        O607   1.261       .  A
N604        O608   1.262       .  A
C609        C610   1.402       .  A
C609        C614   1.407       .  A
C609        H616   1.084       .  S
C610        C611   1.413       .  A
C611        C612   1.403       .  A
C611        N618   1.435       .  S
C612        C613   1.401       .  A
C612        H617   1.084       .  S
C613        C614   1.416       .  A
C614        N615   1.442       .  S
N615        O619   1.263       .  A
N615        O620   1.262       .  A
N618        O621   1.262       .  A
N618        O622   1.263       .  A
C623        C624   1.406       .  A
C623        C628   1.406       .  A
C623        H630   1.084       .  S
C624        C625   1.415       .  A
C625        C626   1.403       .  A
C625        N632   1.439       .  S
C626        C627   1.402       .  A
C626        H631   1.084       .  S
C627        C628   1.414       .  A
C628        N629   1.441       .  S
N629        O633   1.263       .  A
N629        O634   1.263       .  A
N632        O635   1.263       .  A
N632        O636   1.263       .  A
C637        C638   1.405       .  A
C637        C642   1.407       .  A
C637        H644   1.082       .  S
C638        C639   1.417       .  A
C639        C640   1.401       .  A
C639        N646   1.442       .  S
C640        C641   1.403       .  A
C640        H645   1.084       .  S
C641        C642   1.415       .  A
C642        N643   1.439       .  S
N643        O647   1.263       .  A
N643        O648   1.262       .  A
N646        O649   1.263       .  A
N646        O650   1.261       .  A
C651        C652   1.403       .  A
C651        C656   1.407       .  A
C651        H658   1.084       .  S
C652        C653   1.412       .  A
C653        C654   1.402       .  A
C653        N660   1.439       .  S
C654        C655   1.401       .  A
C654        H659   1.085       .  S
C655        C656   1.416       .  A
C656        N657   1.443       .  S
N657        O661   1.263       .  A
N657        O662   1.262       .  A
N660        O663   1.263       .  A
N660        O664   1.262       .  A
C665        C666   1.405       .  A
C665        C670   1.406       .  A
C665        H672   1.084       .  S
C666        C667   1.412       .  A
C667        C668   1.398       .  A
C667        N674   1.436   1_655  S
C668        C669   1.409       .  A
C668        H673   1.081       .  S
C669        C670   1.419       .  A
C670        N671   1.432       .  S
N671        O675   1.263       .  A
N671        O676   1.262       .  A
N674        O677   1.262   1_455  A
N674        O678   1.263       .  A
C679        C680   1.402       .  A
C679        C684   1.401       .  A
C679        H686   1.084       .  S
C680        C681   1.414       .  A
C681        C682   1.404       .  A
C681        N688   1.439       .  S
C682        C683   1.403       .  A
C682        H687   1.084       .  S
C683        C684   1.413       .  A
C684        N685   1.434   1_655  S
N685        O689   1.262       .  A
N685        O690   1.262       .  A
N688        O691   1.262       .  A
N688        O692   1.263       .  A
C693        C694   1.404       .  A
C693        C698   1.403       .  A
C693        H700   1.084   1_455  S
C694        C695   1.417       .  A
C695        C696   1.405       .  A
C695        N702   1.438       .  S
C696        C697   1.401       .  A
C696        H701   1.085       .  S
C697        C698   1.413       .  A
C698        N699   1.441   1_455  S
N699        O703   1.263       .  A
N699        O704   1.263   1_655  A
N702        O705   1.263       .  A
N702        O706   1.263       .  A
C707        C708   1.404       .  A
C707        C712   1.406       .  A
C707        H714   1.084       .  S
C708        C709   1.415       .  A
C709        C710   1.399       .  A
C709        N716   1.436       .  S
C710        C711   1.400       .  A
C710        H715   1.085       .  S
C711        C712   1.417       .  A
C712        N713   1.441       .  S
N713        O717   1.263       .  A
N713        O718   1.261       .  A
N716        O719   1.263       .  A
N716        O720   1.263       .  A
