geometry optimzed in LAMMPS
_audit_creation_date              2020-11-30 
_audit_creation_method            'lammps2cif' 
_symmetry_space_group_name_H-M    'P1' 
_symmetry_Int_Tables_number       1 
_symmetry_cell_setting            triclinic 
loop_ 
_symmetry_equiv_pos_as_xyz 
  x,y,z 
_cell_length_a                    44.96211962 
_cell_length_b                    44.90891153038474 
_cell_length_c                    38.46798589415957 
_cell_angle_alpha                 91.62038145098168 
_cell_angle_beta                  88.33015760264743 
_cell_angle_gamma                 115.39390308672822 
loop_ 
_atom_site_label 
_atom_site_type_symbol 
_atom_site_fract_x 
_atom_site_fract_y 
_atom_site_fract_z 
_atom_site_charge 
O1          O  0.36176771  0.11970229  0.03031040    -0.79400
O2          O  0.36318830  0.23537751  0.96433055    -0.64100
O3          O  0.34396130  0.17036671  0.03166206    -1.10700
C4          C  0.25497709  0.11111563  0.96060545     1.07500
O5          O  0.31264604  0.23179123  0.97277555    -0.77300
O6          O  0.27001053  0.18321825  0.01577671    -0.64900
Ni7        Ni  0.37886602  0.16327771  0.04994803     1.34900
C8          C  0.26281130  0.15886392  0.03561111     0.86200
O9          O  0.39271935  0.23499964  0.02353675    -0.77800
O10         O  0.39753850  0.20721474  0.06895959    -0.88100
C11         C  0.34203943  0.24660582  0.96069866     0.85800
O12         O  0.40985978  0.17716020  0.01220552    -0.66300
O13         O  0.25379808  0.13915362  0.96052025    -0.85600
C14         C  0.40505474  0.17950993  0.98038113     0.86600
C15         C  0.40458269  0.23408138  0.05307229     1.08200
H16         H  0.32549272  0.16765226  0.95164324     0.40000
O17         O  0.31870448  0.17243120  0.97435236    -1.08300
O18         O  0.27640645  0.13927987  0.03221730    -0.64900
Ni19       Ni  0.31128368  0.13683857  0.00374624     1.26300
O20         O  0.38271148  0.18762341  0.97085343    -0.65100
O21         O  0.27827774  0.10626456  0.97392339    -0.77400
C22         C  0.33357575  0.09793925  0.03880507     0.86000
O23         O  0.30783169  0.10187763  0.03327994    -0.64600
Ni24       Ni  0.28411993  0.18489232  0.96799263     1.27400
Ni25       Ni  0.35553482  0.20356987  0.99835764     1.26100
H26         H  0.33322221  0.17620680  0.05098735     0.40500
O27         O  0.27237342  0.19203029  0.46319995    -0.79400
O28         O  0.39796216  0.19602872  0.53541778    -0.64100
O29         O  0.33089387  0.18530199  0.47113517    -1.10700
C30         C  0.26645467  0.09806061  0.54789521     1.07500
O31         O  0.38120045  0.14258603  0.52869525    -0.77300
O32         O  0.32515117  0.09386356  0.50856363    -0.64900
Ni33       Ni  0.31936452  0.22005063  0.46150195     1.34900
C34         C  0.32209901  0.09807581  0.47674646     0.86200
O35         O  0.39708688  0.22665841  0.47540279    -0.77800
O36         O  0.36506142  0.25015809  0.45662236    -0.88100
C37         C  0.40200855  0.17012208  0.54000743     0.85800
O38         O  0.31887063  0.23541660  0.50849206    -0.66300
O39         O  0.29306297  0.10487834  0.56403687    -0.85600
C40         C  0.34082929  0.24152148  0.53125844     0.86600
C41         C  0.39294769  0.24949354  0.46011914     1.08200
H42         H  0.32320703  0.16931736  0.54806407     0.40000
O43         O  0.33002864  0.15925067  0.52881302    -1.08300
O44         O  0.31430458  0.12061102  0.46706819    -0.64900
Ni45       Ni  0.29827980  0.14814973  0.49400534     1.26300
O46         O  0.35970840  0.22700184  0.53125196    -0.65100
O47         O  0.26578492  0.11069394  0.51861218    -0.77400
C48         C  0.25735120  0.16221099  0.45227124     0.86000
O49         O  0.26775272  0.14081099  0.45851237    -0.64600
Ni50       Ni  0.33726146  0.12435366  0.54675502     1.27400
Ni51       Ni  0.36477561  0.19290160  0.50323629     1.26100
H52         H  0.33710459  0.17836560  0.44918220     0.40500
N53         N  0.43030811  0.00247514  0.69680205    -0.35100
N54         N  0.41147942  0.45471032  0.75237158    -0.55700
N55         N  0.42884824  0.00564606  0.80463396    -0.35100
N56         N  0.44865419  0.05363681  0.75008096    -0.55700
C57         C  0.42723633  0.47554389  0.67919653     0.28500
C58         C  0.44830392  0.02914824  0.67745654     0.28500
C59         C  0.42603561  0.47972963  0.82460434     0.28500
C60         C  0.44697210  0.03325921  0.82303722     0.28500
C61         C  0.39639929  0.43588043  0.72463597     0.37100
C62         C  0.39564909  0.43760423  0.78065864     0.37100
C63         C  0.45009181  0.07120808  0.72166132     0.37100
C64         C  0.44955116  0.07276063  0.77812957     0.37100
C65         C  0.44225268  0.48481225  0.64682968    -0.20400
C66         C  0.45576555  0.01863842  0.64550295    -0.20400
C67         C  0.44115022  0.49069594  0.85630294    -0.20400
C68         C  0.45447209  0.02462526  0.85485352    -0.20400
C69         C  0.37037046  0.40699610  0.73525155    -0.21500
C70         C  0.36991986  0.40808375  0.77097789    -0.21500
C71         C  0.45107833  0.10150769  0.73170975    -0.21500
C72         C  0.45072248  0.10247749  0.76756062    -0.21500
C73         C  0.40892176  0.44274878  0.69044740    -0.16800
C74         C  0.45646435  0.06235774  0.68762232    -0.16800
C75         C  0.45516150  0.06572538  0.81224279    -0.16800
C76         C  0.40749838  0.44651803  0.81451158    -0.16800
H77         H  0.44266505  0.46875317  0.62552500     0.16100
H78         H  0.46826291  0.03379807  0.62356629     0.16100
H79         H  0.44151523  0.47582441  0.87776071     0.16100
H80         H  0.46722947  0.04101050  0.87607757     0.16100
H81         H  0.35444393  0.38664365  0.71900451     0.14400
H82         H  0.35362367  0.38873611  0.78784742     0.14400
H83         H  0.95377453  0.12154467  0.71503348     0.14400
H84         H  0.45308859  0.12336272  0.78390250     0.14400
H85         H  0.41793298  0.00261239  0.71999291     0.27600
H86         H  0.41645297  0.00449851  0.78187714     0.27600
N87         N  0.06309946  0.06169017  0.69554320    -0.35100
N88         N  0.03437418  0.08823603  0.74911196    -0.55700
N89         N  0.06358040  0.06662225  0.80300414    -0.35100
N90         N  0.09051501  0.03821579  0.74939700    -0.55700
C91         C  0.04231763  0.06862601  0.67640334     0.28500
C92         C  0.07181759  0.04084920  0.67664912     0.28500
C93         C  0.04218576  0.07433666  0.82225018     0.28500
C94         C  0.07300774  0.04778684  0.82252683     0.28500
C95         C  0.03205768  0.10402027  0.72082110     0.37100
C96         C  0.03128385  0.10577462  0.77681421     0.37100
C97         C  0.10735990  0.03507858  0.72105413     0.37100
C98         C  0.10811597  0.03824132  0.77715825     0.37100
C99         C  0.03865209  0.05298565  0.64417690    -0.20400
C100        C  0.05727106  0.03528595  0.64436942    -0.20400
C101        C  0.03887101  0.06127922  0.85511783    -0.20400
C102        C  0.05841579  0.04449934  0.85530276    -0.20400
C103        C  0.02799291  0.13202745  0.73051013    -0.21500
C104        C  0.02745514  0.13311127  0.76620042    -0.21500
C105        C  0.13615674  0.03368622  0.73071807    -0.21500
C106        C  0.13663585  0.03568974  0.76645516    -0.21500
C107        C  0.02907240  0.09083066  0.68686573    -0.16800
C108        C  0.09472920  0.02934355  0.68723546    -0.16800
C109        C  0.09613933  0.03569338  0.81168779    -0.16800
C110        C  0.02794733  0.09497322  0.81120279    -0.16800
H111        H  0.02525873  0.05523246  0.62229971     0.16100
H112        H  0.06091068  0.02130524  0.62267097     0.16100
H113        H  0.02496803  0.06458589  0.87707886     0.16100
H114        H  0.06242556  0.03247518  0.87744534     0.16100
H115        H  0.02433414  0.14902093  0.71365678     0.14400
H116        H  0.02340458  0.15114187  0.78246627     0.14400
H117        H  0.15414553  0.03018851  0.71387326     0.14400
H118        H  0.15502889  0.03395277  0.78275317     0.14400
H119        H  0.07370555  0.07358640  0.71858684     0.27600
H120        H  0.07395263  0.07661068  0.77916935     0.27600
N121        N  0.00752085  0.43229866  0.80627018    -0.35100
N122        N  0.45703993  0.40778334  0.75309704    -0.55700
N123        N  0.00592531  0.42648214  0.69820801    -0.35100
N124        N  0.05630817  0.45194295  0.75131537    -0.55700
C125        C  0.48050170  0.42843496  0.82546911     0.28500
C126        C  0.03429409  0.45241287  0.82437862     0.28500
C127        C  0.47870946  0.42090284  0.67986585     0.28500
C128        C  0.03250645  0.44563043  0.67885820     0.28500
C129        C  0.43961455  0.39401647  0.78217438     0.37100
C130        C  0.43869334  0.39076108  0.72585207     0.37100
C131        C  0.07562747  0.45595477  0.77891741     0.37100
C132        C  0.07467362  0.45292177  0.72266858     0.37100
C133        C  0.49014990  0.44515619  0.85698429    -0.20400
C134        C  0.02416288  0.46019520  0.85634283    -0.20400
C135        C  0.48812998  0.43568345  0.64778083    -0.20400
C136        C  0.02213480  0.45120502  0.64709111    -0.20400
C137        C  0.41037006  0.36746765  0.77343073    -0.21500
C138        C  0.40978755  0.36542174  0.73762003    -0.21500
C139        C  0.10625997  0.45868239  0.76783939    -0.21500
C140        C  0.10566106  0.45675713  0.73209245    -0.21500
C141        C  0.44767860  0.40841973  0.81574585    -0.16800
C142        C  0.06740804  0.46239218  0.81307144    -0.16800
C143        C  0.06569265  0.45645574  0.68874495    -0.16800
C144        C  0.44594431  0.40123852  0.69110194    -0.16800
H145        H  0.47442754  0.44567934  0.87857427     0.16100
H146        H  0.03960646  0.47436271  0.87740145     0.16100
H147        H  0.47226262  0.43466341  0.62674723     0.16100
H148        H  0.03743712  0.46417998  0.62526899     0.16100
H149        H  0.39077181  0.35232659  0.79096889     0.14400
H150        H  0.38970860  0.34841503  0.72205170     0.14400
H151        H  0.12769190  0.96377501  0.78284969     0.14400
H152        H  0.12666869  0.96005878  0.71413189     0.14400
H153        H  0.00757254  0.41939687  0.78343728     0.27600
H154        H  0.00653017  0.41534452  0.72134082     0.26000
C155        C  0.01528960  0.14299209  0.62092141     0.03800
C156        C  0.48083986  0.13176947  0.62288404     0.03700
C157        C  0.46171738  0.10483949  0.64387431    -0.16800
C158        C  0.47672536  0.08946745  0.66356967     0.03800
C159        C  0.01143198  0.10133489  0.66179849     0.03700
C160        C  0.03022062  0.12738973  0.64005222    -0.16800
H161        H  0.05683103  0.13668849  0.63941989     0.05800
H162        H  0.43518272  0.09601572  0.64509230     0.05800
C163        C  0.14655441  0.01168790  0.61858541     0.03800
C164        C  0.13312547  0.47639449  0.61999488     0.03700
C165        C  0.10624310  0.45882941  0.64209839    -0.16800
C166        C  0.09260735  0.47550068  0.66385228     0.03800
C167        C  0.10611489  0.01052601  0.66230823     0.03700
C168        C  0.13235453  0.02807119  0.63976770    -0.16800
H169        H  0.14277361  0.05478770  0.63991249     0.05800
H170        H  0.09597103  0.43214841  0.64248049     0.05800
C171        C  0.38240353  0.36612550  0.88447031     0.03800
C172        C  0.36167905  0.38249882  0.88188289     0.03700
C173        C  0.37165264  0.40985717  0.86017724    -0.16800
C174        C  0.40041400  0.41987772  0.83972374     0.03800
C175        C  0.42022342  0.40257427  0.84115582     0.03700
C176        C  0.41167806  0.37681041  0.86446782    -0.16800
H177        H  0.42709680  0.36377964  0.86564371     0.05800
H178        H  0.35597763  0.42245747  0.85763518     0.05800
C179        C  0.36192434  0.37592689  0.62497732     0.03800
C180        C  0.37924666  0.35578688  0.62445555     0.03700
C181        C  0.40709842  0.36503639  0.64564273    -0.16800
C182        C  0.41798081  0.39369149  0.66689866     0.03800
C183        C  0.40126798  0.41423017  0.66598706     0.03700
C184        C  0.37363457  0.40505973  0.64517481    -0.16800
H185        H  0.36010823  0.42009222  0.64604579     0.05800
H186        H  0.42038404  0.34982166  0.64572750     0.05800
C187        C  0.13602663  0.48708743  0.87835658     0.03800
C188        C  0.14801487  0.02160725  0.87890365     0.03700
C189        C  0.13340753  0.03690320  0.85857231    -0.16800
C190        C  0.10747763  0.01823327  0.83650736     0.03800
C191        C  0.09472825  0.48315016  0.83653417     0.03700
C192        C  0.10945469  0.46807231  0.85704557    -0.16800
H193        H  0.10029190  0.44146200  0.85630888     0.05800
H194        H  0.14296260  0.06355707  0.85907516     0.05800
C195        C  0.47650761  0.13469392  0.87995331     0.03800
C196        C  0.01127173  0.14801210  0.87908987     0.03700
C197        C  0.02722664  0.13344101  0.85781430    -0.16800
C198        C  0.00936385  0.10658526  0.83624184     0.03800
C199        C  0.47457765  0.09375706  0.83587810     0.03700
C200        C  0.45840668  0.10760034  0.85818971    -0.16800
H201        H  0.43174276  0.09721158  0.85867197     0.05800
H202        H  0.05392320  0.14407806  0.85677907     0.05800
O203        O  0.11649217  0.35760394  0.47238892    -0.79400
O204        O  0.23309856  0.36164710  0.53893232    -0.64100
O205        O  0.16750193  0.34065754  0.47109872    -1.10700
C206        C  0.10664554  0.25307676  0.54455559     1.07500
O207        O  0.22724125  0.31001713  0.53600593    -0.77300
O208        O  0.17844477  0.26430499  0.49484063    -0.64900
Ni209      Ni  0.15969545  0.37497775  0.45229098     1.34900
C210        C  0.15606255  0.25773595  0.47247892     0.86200
O211        O  0.23207832  0.38938638  0.47775296    -0.77800
O212        O  0.20323431  0.39372999  0.43291601    -0.88100
C213        C  0.24283576  0.33993141  0.54637909     0.85800
O214        O  0.17342303  0.40671720  0.48927983    -0.66300
O215        O  0.13477604  0.25307987  0.54848530    -0.85600
C216        C  0.17651903  0.40279034  0.52115286     0.86600
C217        C  0.23039874  0.40093280  0.44810886     1.08200
H218        H  0.16328985  0.32472835  0.55131438     0.40000
O219        O  0.16871511  0.31679294  0.52953768    -1.08300
O220        O  0.13773929  0.27286627  0.47176371    -0.64900
Ni221      Ni  0.13354108  0.30802125  0.49863233     1.26300
O222        O  0.18537329  0.38110394  0.53110300    -0.65100
O223        O  0.10202057  0.27512347  0.52818277    -0.77400
C224        C  0.09510734  0.32990024  0.46220723     0.86000
O225        O  0.09909347  0.30399019  0.46737526    -0.64600
Ni226      Ni  0.18032715  0.28252398  0.54082101     1.27400
Ni227      Ni  0.20072908  0.35294174  0.50453526     1.26100
H228        H  0.17349987  0.32981826  0.45193869     0.40500
O229        O  0.18906223  0.26874159  0.02514265    -0.79400
O230        O  0.19693080  0.40079069  0.96530712    -0.64100
O231        O  0.18495551  0.32933041  0.02422418    -1.10700
C232        C  0.09852817  0.26965742  0.94574232     1.07500
O233        O  0.14320613  0.38379262  0.96911041    -0.77300
O234        O  0.09440684  0.32692804  0.98702784    -0.64900
Ni235      Ni  0.21866891  0.31544380  0.02993926     1.34900
C236        C  0.09924724  0.32454878  0.01884415     0.86200
O237        O  0.22705904  0.39513021  0.02424885    -0.77800
O238        O  0.24999478  0.36078294  0.03739061    -0.88100
C239        C  0.17134301  0.40523713  0.96003401     0.85800
O240        O  0.23235138  0.31722364  0.98199043    -0.66300
O241        O  0.10597228  0.29664023  0.92995228    -0.85600
C242        C  0.24060191  0.34230380  0.96297901     0.86600
C243        C  0.25008864  0.38939277  0.03705906     1.08200
H244        H  0.17004344  0.32609950  0.94783754     0.40000
O245        O  0.15965982  0.33226582  0.96726875    -1.08300
O246        O  0.12121865  0.31582043  0.02826811    -0.64900
Ni247      Ni  0.14752265  0.29888798  0.00054393     1.26300
O248        O  0.22726170  0.36208175  0.96624052    -0.65100
O249        O  0.10989487  0.26836008  0.97545063    -0.77400
C250        C  0.15994932  0.25467619  0.03817386     0.86000
O251        O  0.13926679  0.26660074  0.03463242    -0.64600
Ni252      Ni  0.12532084  0.34040190  0.94920236     1.27400
Ni253      Ni  0.19301646  0.36529982  0.99487725     1.26100
H254        H  0.17857269  0.33429216  0.04706732     0.40500
N255        N  0.49757441  0.06945576  0.19528704    -0.35100
N256        N  0.04502820  0.09187772  0.25070587    -0.55700
N257        N  0.49289766  0.07291569  0.30342254    -0.35100
N258        N  0.44561378  0.04921181  0.24792848    -0.55700
C259        C  0.02536410  0.07367994  0.17725648     0.28500
C260        C  0.47155146  0.05012821  0.17576225     0.28500
C261        C  0.01907229  0.07774156  0.32311616     0.28500
C262        C  0.46535296  0.05392367  0.32159973     0.28500
C263        C  0.06416859  0.10647550  0.22278686     0.37100
C264        C  0.06156171  0.10834088  0.27914041     0.37100
C265        C  0.42809929  0.04627346  0.21905779     0.37100
C266        C  0.42573526  0.04783596  0.27545210     0.37100
C267        C  0.01697988  0.05781166  0.14518224    -0.20400
C268        C  0.48299992  0.04309203  0.14417278    -0.20400
C269        C  0.00806040  0.06264830  0.35486324    -0.20400
C270        C  0.47408868  0.04766619  0.35393870    -0.20400
C271        C  0.09267558  0.13292081  0.23345449    -0.21500
C272        C  0.09104632  0.13406125  0.26928070    -0.21500
C273        C  0.39712393  0.04386130  0.22824678    -0.21500
C274        C  0.39562593  0.04484548  0.26405278    -0.21500
C275        C  0.05780202  0.09343389  0.18849169    -0.16800
C276        C  0.43799765  0.04040614  0.18532578    -0.16800
C277        C  0.43273871  0.04367656  0.31006531    -0.16800
C278        C  0.05231309  0.09711947  0.31345315    -0.16800
H279        H  0.03353664  0.05774599  0.12425706     0.16100
H280        H  0.46847474  0.02981727  0.12218100     0.16100
H281        H  0.02285158  0.06311194  0.37672010     0.16100
H282        H  0.45773042  0.03451504  0.37503925     0.16100
H283        H  0.11312216  0.14871891  0.21720362     0.14400
H284        H  0.11001516  0.15083904  0.28618652     0.14400
H285        H  0.37698482  0.54002160  0.21037362     0.14400
H286        H  0.37413331  0.54219395  0.27922772     0.14400
H287        H  0.49649312  0.08173221  0.21824328     0.27600
H288        H  0.49374577  0.08445096  0.28011563     0.27600
N289        N  0.43409950  0.43762570  0.30272129    -0.35100
N290        N  0.46557255  0.41260157  0.25034423    -0.55700
N291        N  0.43987557  0.43646545  0.19547015    -0.35100
N292        N  0.41010738  0.46315915  0.24765597    -0.55700
C293        C  0.45384850  0.42997079  0.32278030     0.28500
C294        C  0.42517947  0.45861933  0.32113173     0.28500
C295        C  0.46213814  0.42931117  0.17724354     0.28500
C296        C  0.43155852  0.45586384  0.17566059     0.28500
C297        C  0.46553404  0.39545067  0.27849985     0.37100
C298        C  0.46967742  0.39573535  0.22252091     0.37100
C299        C  0.39220235  0.46615928  0.27504588     0.37100
C300        C  0.39411401  0.46417973  0.21901313     0.37100
C301        C  0.45651570  0.44523106  0.35510882    -0.20400
C302        C  0.43844520  0.46347446  0.35402906    -0.20400
C303        C  0.46728239  0.44343682  0.14475213    -0.20400
C304        C  0.44776532  0.46013063  0.14369007    -0.20400
C305        C  0.46907738  0.36722829  0.26857538    -0.21500
C306        C  0.47169767  0.36740704  0.23287957    -0.21500
C307        C  0.36428606  0.46850805  0.26389362    -0.21500
C308        C  0.36548986  0.46722577  0.22815783    -0.21500
C309        C  0.46731974  0.40777131  0.31275437    -0.16800
C310        C  0.40330835  0.47105710  0.30940572    -0.16800
C311        C  0.40786885  0.46744662  0.18527760    -0.16800
C312        C  0.47515412  0.40782202  0.18851063    -0.16800
H313        H  0.46898192  0.44249489  0.37754775     0.16100
H314        H  0.43440307  0.47747006  0.37547069     0.16100
H315        H  0.48224442  0.44073505  0.12349345     0.16100
H316        H  0.44473865  0.47261346  0.12139748     0.16100
H317        H  0.47104126  0.34925527  0.28538604     0.14400
H318        H  0.47590074  0.34951771  0.21653222     0.14400
H319        H  0.34586582  0.47224311  0.27978331     0.14400
H320        H  0.34823984  0.46990219  0.21089409     0.14400
H321        H  0.42441427  0.42626760  0.27914291     0.27600
H322        H  0.42806399  0.42557938  0.21847156     0.27600
C323        C  0.36343254  0.02246688  0.37765237     0.03800
C324        C  0.34996575  0.48793483  0.37682207     0.03700
C325        C  0.36435297  0.47191295  0.35538982    -0.16800
C326        C  0.39118913  0.48973449  0.33369245     0.03800
C327        C  0.40463121  0.02422251  0.33380091     0.03700
C328        C  0.39055141  0.04044759  0.35574750    -0.16800
H329        H  0.40086315  0.06713675  0.35590556     0.05800
H330        H  0.35381993  0.44518659  0.35464228     0.05800
N331        N  0.06759488  0.49710823  0.30481556    -0.35100
N332        N  0.09178915  0.04633618  0.25182359    -0.55700
N333        N  0.07653737  0.49714225  0.19719945    -0.35100
N334        N  0.05134447  0.44742315  0.25068686    -0.55700
C335        C  0.07022299  0.02338719  0.32376710     0.28500
C336        C  0.04825535  0.47018759  0.32317144     0.28500
C337        C  0.08133400  0.02380206  0.17863161     0.28500
C338        C  0.05842003  0.47019986  0.17776737     0.28500
C339        C  0.10483154  0.06425591  0.28074797     0.37100
C340        C  0.10937136  0.06442561  0.22478253     0.37100
C341        C  0.04743110  0.42867776  0.27882555     0.37100
C342        C  0.05127436  0.42883629  0.22247811     0.37100
C343        C  0.05351159  0.01354730  0.35525790    -0.20400
C344        C  0.03957651  0.48025106  0.35473953    -0.20400
C345        C  0.06758971  0.01396818  0.14614237    -0.20400
C346        C  0.05301697  0.48007728  0.14563453    -0.20400
C347        C  0.13142499  0.09354735  0.27214563    -0.21500
C348        C  0.13425172  0.09367413  0.23647140    -0.21500
C349        C  0.04570090  0.39817065  0.26848954    -0.21500
C350        C  0.04809163  0.39826194  0.23270707    -0.21500
C351        C  0.08985908  0.05636270  0.31392757    -0.16800
C352        C  0.04011360  0.43710478  0.31266113    -0.16800
C353        C  0.04800136  0.43716219  0.18813377    -0.16800
C354        C  0.09956279  0.05676196  0.19011964    -0.16800
H355        H  0.05242524  0.02921633  0.37664827     0.16100
H356        H  0.02590768  0.46477750  0.37602379     0.16100
H357        H  0.06858352  0.02962103  0.12486850     0.16100
H358        H  0.04055989  0.46443458  0.12380701     0.16100
H359        H  0.14608464  0.11347334  0.28958220     0.14400
H360        H  0.15144013  0.11366604  0.22088438     0.14400
H361        H  0.54117656  0.37737390  0.28481630     0.14400
H362        H  0.04572195  0.37756258  0.21604887     0.14400
H363        H  0.08113073  0.49721822  0.28244182     0.27600
H364        H  0.08729664  0.49716955  0.22077163     0.27600
C365        C  0.37228693  0.01697857  0.11658249     0.03800
C366        C  0.35913775  0.48179450  0.11534652     0.03700
C367        C  0.37244693  0.46649490  0.13723964    -0.16800
C368        C  0.39786998  0.48508269  0.15973333     0.03800
C369        C  0.41173235  0.02019174  0.16043088     0.03700
C370        C  0.39872656  0.03567419  0.13834055    -0.16800
H371        H  0.40862123  0.06234773  0.13875963     0.05800
H372        H  0.36207609  0.43979880  0.13780305     0.05800
C373        C  0.13463088  0.12197377  0.38094508     0.03800
C374        C  0.11624272  0.14103386  0.38266868     0.03700
C375        C  0.08831864  0.13139586  0.36158630    -0.16800
C376        C  0.07887254  0.10375787  0.33902034     0.03800
C377        C  0.09636474  0.08398709  0.33922813     0.03700
C378        C  0.12375454  0.09324642  0.36023483    -0.16800
H379        H  0.13810443  0.07902581  0.35856161     0.05800
H380        H  0.07432626  0.14593797  0.36197423     0.05800
C381        C  0.14532177  0.12208997  0.12304943     0.03800
C382        C  0.12360265  0.13743073  0.11968164     0.03700
C383        C  0.09427784  0.12608592  0.13998763    -0.16800
C384        C  0.08638532  0.10073139  0.16389818     0.03800
C385        C  0.10711277  0.08445106  0.16589996     0.03700
C386        C  0.13622457  0.09543032  0.14582987    -0.16800
H387        H  0.15248140  0.08355434  0.14885841     0.05800
H388        H  0.07776998  0.13781540  0.13800664     0.05800
C389        C  0.01670006  0.36906792  0.37887245     0.03800
C390        C  0.48223143  0.35750618  0.38076952     0.03700
C391        C  0.46674126  0.37194828  0.36061801    -0.16800
C392        C  0.48512952  0.39752038  0.33809761     0.03800
C393        C  0.01992170  0.40986152  0.33656838     0.03700
C394        C  0.03538010  0.39543891  0.35705850    -0.16800
H395        H  0.06195210  0.40463938  0.35588244     0.05800
H396        H  0.44010391  0.36226981  0.36132827     0.05800
C397        C  0.49239957  0.35601370  0.11955930     0.03800
C398        C  0.02724256  0.36959996  0.11876147     0.03700
C399        C  0.04512453  0.39656547  0.14084114    -0.16800
C400        C  0.02877447  0.40983877  0.16361359     0.03800
C401        C  0.49397119  0.39634931  0.16367228     0.03700
C402        C  0.47628762  0.36994326  0.14147778    -0.16800
H403        H  0.44958357  0.35914489  0.14247869     0.05800
H404        H  0.07179761  0.40718925  0.14040731     0.05800
C405        C  0.15192013  0.19612352  0.04300951     0.25100
C406        C  0.14996316  0.22416489  0.05784233    -0.23000
C407        C  0.13837754  0.22322841  0.09219208     0.20000
C408        C  0.12993207  0.19510100  0.11198737     0.25000
C409        C  0.13145219  0.16663629  0.09733219    -0.23000
C410        C  0.14152822  0.16712725  0.06215406     0.19900
F411        F  0.14159827  0.13973113  0.04639626    -0.12900
F412        F  0.16341997  0.19670027  0.00988793    -0.15300
F413        F  0.12147202  0.19620502  0.14601911    -0.15300
F414        F  0.13670755  0.25024679  0.10714739    -0.12900
C415        C  0.05688634  0.34591420  0.03398854     0.25100
C416        C  0.07919982  0.33362394  0.04508352    -0.23000
C417        C  0.08388751  0.33302765  0.08114858     0.20000
C418        C  0.06704316  0.34466321  0.10519740     0.25000
C419        C  0.04517115  0.35703074  0.09375530    -0.23000
C420        C  0.04046577  0.35770277  0.05799883     0.19900
F421        F  0.02065882  0.37091091  0.04614968    -0.12900
F422        F  0.05139541  0.34756287  0.99971979    -0.15300
F423        F  0.07202840  0.34378818  0.13971765    -0.15300
F424        F  0.10512184  0.32171291  0.09326371    -0.12900
C425        C  0.30049993  0.46121265  0.09556365     0.25100
C426        C  0.33157306  0.46065105  0.09272333    -0.23000
C427        C  0.33622722  0.43877411  0.06880377     0.20000
C428        C  0.31004213  0.41689173  0.04911560     0.25000
C429        C  0.27865456  0.41654066  0.05290771    -0.23000
C430        C  0.27434927  0.43961406  0.07538070     0.19900
F431        F  0.24429122  0.43967230  0.07962513    -0.12900
F432        F  0.29493882  0.48139564  0.11912624    -0.15300
F433        F  0.31522776  0.39556075  0.02674288    -0.15300
F434        F  0.36613973  0.43827489  0.06496590    -0.12900
C435        C  0.14013126  0.22993194  0.41363535     0.25100
C436        C  0.14862297  0.22909585  0.44837822    -0.23000
C437        C  0.14546565  0.19896026  0.46164296     0.20000
C438        C  0.13347171  0.17022582  0.44091894     0.25000
C439        C  0.12622778  0.17120146  0.40567554    -0.23000
C440        C  0.12975946  0.20149167  0.39229082     0.19900
F441        F  0.12372888  0.20373445  0.35832442    -0.12900
F442        F  0.14216408  0.25840277  0.40025213    -0.15300
F443        F  0.12822797  0.14122306  0.45564357    -0.15300
F444        F  0.15222533  0.19686676  0.49542862    -0.12900
C445        C  0.05040199  0.34722246  0.45796751     0.25100
C446        C  0.06750661  0.33005851  0.44302164    -0.23000
C447        C  0.06560517  0.32333540  0.40705904     0.20000
C448        C  0.04867045  0.33567971  0.38603482     0.25000
C449        C  0.03341080  0.35465740  0.40087069    -0.23000
C450        C  0.03355624  0.35949185  0.43706718     0.19900
F451        F  0.01900959  0.37779078  0.45194012    -0.12900
F452        F  0.05232791  0.35439988  0.49260366    -0.15300
F453        F  0.04806322  0.33011300  0.35113194    -0.15300
F454        F  0.08271152  0.30761968  0.39196623    -0.12900
C455        C  0.29194533  0.42528293  0.43971886     0.25100
C456        C  0.26126397  0.42397746  0.43057324    -0.23000
C457        C  0.26038166  0.44474395  0.40408359     0.20000
C458        C  0.28938136  0.46611702  0.38729398     0.25000
C459        C  0.31976186  0.46727635  0.39659483    -0.23000
C460        C  0.32086496  0.44665726  0.42276243     0.19900
F461        F  0.35039818  0.94656806  0.43217526    -0.12900
F462        F  0.29397872  0.40513555  0.46425810    -0.15300
F463        F  0.28771258  0.48492330  0.36105584    -0.15300
F464        F  0.23149663  0.44444546  0.39421922    -0.12900
C465        C  0.05405200  0.17873035  0.92280621     0.25100
C466        C  0.03189144  0.17872864  0.89791856    -0.23000
C467        C  0.03164137  0.20858987  0.88861290     0.20000
C468        C  0.05317207  0.23818952  0.90418306     0.25000
C469        C  0.07550189  0.23838341  0.92925292    -0.23000
C470        C  0.07566348  0.20825355  0.93840933     0.19900
F471        F  0.09743717  0.20736206  0.96163685    -0.12900
F472        F  0.05499731  0.15008766  0.93164838    -0.15300
F473        F  0.05205426  0.26657706  0.89468436    -0.15300
F474        F  0.51134372  0.20918874  0.86346501    -0.12900
C475        C  0.14373960  0.46868719  0.93634732     0.25100
C476        C  0.15027650  0.47040494  0.90043093    -0.23000
C477        C  0.16981086  0.45571734  0.88574463     0.20000
C478        C  0.18104146  0.43772754  0.90657202     0.25000
C479        C  0.17231480  0.43393044  0.94206917    -0.23000
C480        C  0.15466092  0.45053703  0.95702470     0.19900
F481        F  0.14558191  0.44674616  0.99119207    -0.12900
F482        F  0.12508420  0.98284791  0.94988426    -0.15300
F483        F  0.19739252  0.42124016  0.89147639    -0.15300
F484        F  0.17671766  0.45763778  0.85105828    -0.12900
C485        C  0.29982602  0.38069137  0.56295187     0.25100
C486        C  0.27321447  0.34946653  0.56662502    -0.23000
C487        C  0.27543631  0.32747364  0.59066862     0.20000
C488        C  0.30383250  0.33629735  0.61023522     0.25000
C489        C  0.33097414  0.36695195  0.60548828    -0.23000
C490        C  0.32846229  0.38927178  0.58207207     0.19900
F491        F  0.35416965  0.41913402  0.57703399    -0.12900
F492        F  0.29852916  0.40261913  0.54016366    -0.15300
F493        F  0.30458967  0.31508876  0.63427901    -0.15300
F494        F  0.24962531  0.29776271  0.59607792    -0.12900
C495        C  0.27596704  0.32873192  0.91895700     0.25100
C496        C  0.26961731  0.35187971  0.93931634    -0.23000
C497        C  0.29295296  0.38512493  0.93935157     0.20000
C498        C  0.32269072  0.39473451  0.92094771     0.25000
C499        C  0.32940029  0.37165693  0.90081948    -0.23000
C500        C  0.30506645  0.33879877  0.89879609     0.19900
F501        F  0.30923818  0.31653356  0.87703202    -0.12900
F502        F  0.25384126  0.29659157  0.91813828    -0.15300
F503        F  0.34539911  0.42659913  0.92365008    -0.15300
F504        F  0.28778628  0.40825597  0.95880271    -0.12900
C505        C  0.13994513  0.45869541  0.55989156     0.25100
C506        C  0.14539165  0.45811534  0.59539884    -0.23000
C507        C  0.16224861  0.44024566  0.60686183     0.20000
C508        C  0.17344851  0.42299576  0.58285581     0.25000
C509        C  0.16790205  0.42341223  0.54695518    -0.23000
C510        C  0.15123319  0.44190275  0.53590331     0.19900
F511        F  0.14467281  0.44304498  0.50186305    -0.12900
F512        F  0.12269930  0.47489981  0.54848837    -0.15300
F513        F  0.18947653  0.40581576  0.59482674    -0.15300
F514        F  0.16796353  0.43965473  0.64124444    -0.12900
C515        C  0.07382958  0.19311777  0.55042762     0.25100
C516        C  0.07869432  0.22528223  0.56000784    -0.23000
C517        C  0.06150327  0.23031269  0.58887328     0.20000
C518        C  0.04046607  0.20344231  0.60864887     0.25000
C519        C  0.03632777  0.17137509  0.59947931    -0.23000
C520        C  0.05298262  0.16637904  0.57016012     0.19900
F521        F  0.04954083  0.13562493  0.56114012    -0.12900
F522        F  0.09027739  0.18780473  0.52258568    -0.15300
F523        F  0.02564973  0.20883575  0.63783931    -0.15300
F524        F  0.06697080  0.26133533  0.59931547    -0.12900
C525        C  0.44733225  0.15394717  0.54429490     0.25100
C526        C  0.42927044  0.16996157  0.55951927    -0.23000
C527        C  0.43030450  0.17582890  0.59561334     0.20000
C528        C  0.44777518  0.16402988  0.61645558     0.25000
C529        C  0.46440146  0.14652490  0.60122805    -0.23000
C530        C  0.46475278  0.14228078  0.56499718     0.19900
F531        F  0.48002398  0.12473784  0.54992639    -0.12900
F532        F  0.44565145  0.14706372  0.50959818    -0.15300
F533        F  0.44727925  0.16831788  0.65151542    -0.15300
F534        F  0.41171721  0.18986155  0.61091650    -0.12900
C535        C  0.34143204  0.05411658  0.46208944     0.25100
C536        C  0.32937906  0.07654414  0.45074423    -0.23000
C537        C  0.32713133  0.07965841  0.41458637     0.20000
C538        C  0.33779673  0.06182944  0.39069923     0.25000
C539        C  0.35066787  0.04043903  0.40241570    -0.23000
C540        C  0.35221397  0.03671106  0.43825640     0.19900
F541        F  0.36555192  0.01710573  0.45035864    -0.12900
F542        F  0.34395848  0.04955250  0.49643108    -0.15300
F543        F  0.33567559  0.06551576  0.35608190    -0.15300
F544        F  0.31509879  0.10024084  0.40221312    -0.12900
C545        C  0.23590343  0.05421541  0.59141436     0.25100
C546        C  0.23518536  0.07433739  0.56417637    -0.23000
C547        C  0.20444424  0.07211022  0.55378014     0.20000
C548        C  0.17541553  0.05104920  0.57088904     0.25000
C549        C  0.17658410  0.03175053  0.59838528    -0.23000
C550        C  0.20692189  0.03340183  0.60844402     0.19900
F551        F  0.20860260  0.01576931  0.63580904    -0.12900
F552        F  0.26468476  0.05477821  0.60202375    -0.15300
F553        F  0.14615619  0.04984288  0.56103610    -0.15300
F554        F  0.20242272  0.09111048  0.52800058    -0.12900
C555        C  0.42625755  0.30927518  0.45378154     0.25100
C556        C  0.42105626  0.27693904  0.44462816    -0.23000
C557        C  0.43755313  0.27126527  0.41551982     0.20000
C558        C  0.45796077  0.29762776  0.39486535     0.25000
C559        C  0.46186781  0.32976395  0.40318045    -0.23000
C560        C  0.44634288  0.33551517  0.43302108     0.19900
F561        F  0.45024263  0.36649407  0.44163411    -0.12900
F562        F  0.41072532  0.31516982  0.48209700    -0.15300
F563        F  0.47252427  0.29165751  0.36578652    -0.15300
F564        F  0.43179180  0.24003681  0.40558496    -0.12900
C565        C  0.22176524  0.17357719  0.41090629     0.25100
C566        C  0.22632162  0.15183301  0.43344533    -0.23000
C567        C  0.20126838  0.11971205  0.43712327     0.20000
C568        C  0.17144385  0.11018953  0.42030702     0.25000
C569        C  0.16647275  0.13224875  0.39860926    -0.23000
C570        C  0.19231788  0.16360697  0.39307622     0.19900
F571        F  0.18925960  0.18433541  0.36991284    -0.12900
F572        F  0.24627364  0.20402194  0.40511484    -0.15300
F573        F  0.14715209  0.07953406  0.42570730    -0.15300
F574        F  0.20536055  0.09761301  0.45748240    -0.12900
C575        C  0.36399071  0.29485260  0.61392974     0.25100
C576        C  0.36925324  0.32588730  0.60105267    -0.23000
C577        C  0.36433606  0.32823369  0.56544474     0.20000
C578        C  0.35251962  0.30017849  0.54377647     0.25000
C579        C  0.34747124  0.26926369  0.55644020    -0.23000
C580        C  0.35386610  0.26696307  0.59164019     0.19900
F581        F  0.35013295  0.23767873  0.60445271    -0.12900
F582        F  0.36842239  0.29145669  0.64810016    -0.15300
F583        F  0.34793924  0.30368072  0.50967405    -0.15300
F584        F  0.37200332  0.35803243  0.55125391    -0.12900
C585        C  0.20761574  0.04556708  0.89472381     0.25100
C586        C  0.17542669  0.04210724  0.90177696    -0.23000
C587        C  0.16925071  0.05818508  0.93093541     0.20000
C588        C  0.19514210  0.07888074  0.95175731     0.25000
C589        C  0.22756979  0.08364148  0.94382090    -0.23000
C590        C  0.23356064  0.06604144  0.91586116     0.19900
F591        F  0.26475039  0.07055519  0.90753603    -0.12900
F592        F  0.21409624  0.03037661  0.86645709    -0.15300
F593        F  0.18875055  0.09511979  0.97916029    -0.15300
F594        F  0.13814084  0.05413535  0.93890232    -0.12900
C595        C  0.22890320  0.17459548  0.07973849     0.25100
C596        C  0.23515333  0.15038883  0.06117121    -0.23000
C597        C  0.21278505  0.11706620  0.06476859     0.20000
C598        C  0.18389688  0.10826151  0.08464088     0.25000
C599        C  0.17718416  0.13233166  0.10299811    -0.23000
C600        C  0.20082721  0.16553000  0.10151768     0.19900
F601        F  0.19668636  0.18926003  0.12085773    -0.12900
F602        F  0.25004943  0.20693348  0.07701820    -0.15300
F603        F  0.16175436  0.07608962  0.08469191    -0.15300
F604        F  0.21782362  0.09288171  0.04725398    -0.12900
C605        C  0.43962472  0.16281759  0.89393811     0.25100
C606        C  0.45895837  0.14743045  0.90514858    -0.23000
C607        C  0.46190529  0.14429873  0.94085343     0.20000
C608        C  0.44561307  0.15600073  0.96510561     0.25000
C609        C  0.42542199  0.17088793  0.95421074    -0.23000
C610        C  0.42307899  0.17458097  0.91820676     0.19900
F611        F  0.40465451  0.18933294  0.90636630    -0.12900
F612        F  0.43700009  0.16665316  0.85945677    -0.15300
F613        F  0.44898244  0.15163902  0.99931606    -0.15300
F614        F  0.47991329  0.12890759  0.95230209    -0.12900
C615        C  0.33055069  0.07047894  0.09353170     0.25100
C616        C  0.33252650  0.06968062  0.05714296    -0.23000
C617        C  0.34467206  0.04904220  0.04009675     0.20000
C618        C  0.35731035  0.03138502  0.05933711     0.25000
C619        C  0.35765585  0.03415994  0.09582291    -0.23000
C620        C  0.34329686  0.05298742  0.11281959     0.19900
F621        F  0.34245895  0.05506120  0.14809441    -0.12900
F622        F  0.31926336  0.09073663  0.11028590    -0.15300
F623        F  0.37084002  0.01311886  0.04237141    -0.15300
F624        F  0.34652506  0.04803437  0.00481115    -0.12900
C625        C  0.47189405  0.29547009  0.10978288     0.25100
C626        C  0.47178349  0.32536309  0.10045853    -0.23000
C627        C  0.44962089  0.32536422  0.07551213     0.20000
C628        C  0.42801625  0.29581100  0.05978320     0.25000
C629        C  0.42783588  0.26558486  0.06924971    -0.23000
C630        C  0.45015187  0.26584390  0.09440058     0.19900
F631        F  0.45104332  0.23744748  0.10422568    -0.12900
F632        F  0.49224549  0.29487280  0.13487365    -0.15300
F633        F  0.40660964  0.29678578  0.03613719    -0.15300
F634        F  0.44868827  0.35402832  0.06671324    -0.12900
C635        C  0.36543396  0.33567920  0.94097411     0.25100
C636        C  0.37298541  0.33604063  0.90515318    -0.23000
C637        C  0.37052060  0.30689138  0.88827459     0.20000
C638        C  0.36042518  0.27787666  0.90671113     0.25000
C639        C  0.35199375  0.27732476  0.94206700    -0.23000
C640        C  0.35448280  0.30623815  0.95924984     0.19900
F641        F  0.34709923  0.30604827  0.99374439    -0.12900
F642        F  0.36878359  0.36373711  0.95815135    -0.15300
F643        F  0.35810701  0.24998913  0.88986588    -0.15300
F644        F  0.37679958  0.30626801  0.85357476    -0.12900
O645        O  0.36151068  0.61974462  0.03021746    -0.79400
O646        O  0.36309937  0.73555669  0.96446058    -0.64100
O647        O  0.34376631  0.67049345  0.03180731    -1.10700
C648        C  0.25440611  0.61163553  0.96137862     1.07500
O649        O  0.31271359  0.73232997  0.97309533    -0.77300
O650        O  0.27041784  0.68396013  0.01666379    -0.64900
Ni651      Ni  0.37858722  0.66325679  0.05000619     1.34900
C652        C  0.26297171  0.65939980  0.03625868     0.86200
O653        O  0.39269067  0.73493163  0.02357958    -0.77800
O654        O  0.39717001  0.70710466  0.06914494    -0.88100
C655        C  0.34207152  0.74694938  0.96083956     0.85800
O656        O  0.40958604  0.67734470  0.01229145    -0.66300
O657        O  0.25330168  0.63971835  0.96155168    -0.85600
C658        C  0.40471168  0.67956585  0.98045990     0.86600
C659        C  0.40436200  0.73397295  0.05321147     1.08200
H660        H  0.32502226  0.66793261  0.95185276     0.40000
O661        O  0.31838835  0.67272181  0.97463706    -1.08300
O662        O  0.27631172  0.63962037  0.03262734    -0.64900
Ni663      Ni  0.31099572  0.63707611  0.00397883     1.26300
O664        O  0.38229586  0.68755291  0.97090841    -0.65100
O665        O  0.27779685  0.60667050  0.97430431    -0.77400
C666        C  0.33333006  0.59797781  0.03873495     0.86000
O667        O  0.30759326  0.60201182  0.03340233    -0.64600
Ni668      Ni  0.28391373  0.68542630  0.96869266     1.27400
Ni669      Ni  0.35536590  0.70370446  0.99850705     1.26100
H670        H  0.33310795  0.67639134  0.05116897     0.40500
O671        O  0.27227190  0.69151848  0.46324573    -0.79400
O672        O  0.39764232  0.69474246  0.53525288    -0.64100
O673        O  0.33041544  0.68415145  0.47118588    -1.10700
C674        C  0.26596588  0.59753736  0.54869829     1.07500
O675        O  0.38046309  0.64127325  0.52848625    -0.77300
O676        O  0.32410375  0.59266733  0.50905131    -0.64900
Ni677      Ni  0.31934908  0.71904330  0.46083701     1.34900
C678        C  0.32103399  0.59691569  0.47725430     0.86200
O679        O  0.39682769  0.72513760  0.47508319    -0.77800
O680        O  0.36516278  0.74862930  0.45526937    -0.88100
C681        C  0.40154966  0.66872271  0.53966509     0.85800
O682        O  0.31950673  0.73540927  0.50747879    -0.66300
O683        O  0.29262948  0.60425005  0.56469170    -0.85600
C684        C  0.34126388  0.74125776  0.53041870     0.86600
C685        C  0.39291934  0.74779005  0.45916555     1.08200
H686        H  0.32302391  0.66865882  0.54831280     0.40000
O687        O  0.32960271  0.65840109  0.52904885    -1.08300
O688        O  0.31322468  0.61944370  0.46761420    -0.64900
Ni689      Ni  0.29765202  0.64734655  0.49446376     1.26300
O690        O  0.35965444  0.72620289  0.53088001    -0.65100
O691        O  0.26517937  0.61018912  0.51945660    -0.77400
C692        C  0.25683295  0.66164716  0.45262148     0.86000
O693        O  0.26686089  0.64000878  0.45915019    -0.64600
Ni694      Ni  0.33669539  0.62340555  0.54701659     1.27400
Ni695      Ni  0.36438927  0.69173329  0.50317619     1.26100
H696        H  0.33646363  0.67688226  0.44933894     0.40500
N697        N  0.43054794  0.50283466  0.69774487    -0.35100
N698        N  0.41146071  0.95447312  0.75146712    -0.55700
N699        N  0.42931586  0.50585660  0.80562984    -0.35100
N700        N  0.44943773  0.55397224  0.75110862    -0.55700
C701        C  0.42743462  0.97526019  0.67838962     0.28500
C702        C  0.44861700  0.52947892  0.67836827     0.28500
C703        C  0.42577454  0.97958658  0.82359585     0.28500
C704        C  0.44739267  0.53342766  0.82412821     0.28500
C705        C  0.39646222  0.93563601  0.72371159     0.37100
C706        C  0.39544055  0.93745496  0.77971980     0.37100
C707        C  0.45112207  0.57168819  0.72273230     0.37100
C708        C  0.45044416  0.57311154  0.77917142     0.37100
C709        C  0.44269694  0.98458620  0.64614332    -0.20400
C710        C  0.45566370  0.51888774  0.64626638    -0.20400
C711        C  0.44107174  0.99063105  0.85518926    -0.20400
C712        C  0.45460962  0.52470025  0.85603469    -0.20400
C713        C  0.37027643  0.90684705  0.73426366    -0.21500
C714        C  0.36965262  0.90799530  0.76999771    -0.21500
C715        C  0.45241941  0.60209659  0.73281407    -0.21500
C716        C  0.45196639  0.60298356  0.76864602    -0.21500
C717        C  0.40918577  0.94246550  0.68960401    -0.16800
C718        C  0.45722263  0.56275543  0.68864351    -0.16800
C719        C  0.45581659  0.56594345  0.81330490    -0.16800
C720        C  0.40724857  0.94636665  0.81357413    -0.16800
H721        H  0.44346058  0.96857232  0.62495193     0.16100
H722        H  0.46814495  0.53402195  0.62430468     0.16100
H723        H  0.44158970  0.97581957  0.87663031     0.16100
H724        H  0.46722243  0.54103194  0.87735070     0.16100
H725        H  0.35435743  0.88652159  0.71798272     0.14400
H726        H  0.35321511  0.88872079  0.78685320     0.14400
H727        H  0.95532890  0.62222518  0.71616814     0.14400
H728        H  0.45448800  0.62390459  0.78501091     0.14400
H729        H  0.41844117  0.50306408  0.72109090     0.27600
H730        H  0.41709484  0.50480342  0.78277886     0.27600
N731        N  0.06355518  0.56216565  0.69646427    -0.35100
N732        N  0.03524555  0.58912340  0.75007010    -0.55700
N733        N  0.06366444  0.56671594  0.80385952    -0.35100
N734        N  0.09042098  0.53814484  0.75022200    -0.55700
C735        C  0.04279953  0.56923253  0.67742156     0.28500
C736        C  0.07196110  0.54109031  0.67757185     0.28500
C737        C  0.04234151  0.57455478  0.82307522     0.28500
C738        C  0.07266955  0.54749844  0.82326713     0.28500
C739        C  0.03310609  0.60501737  0.72179197     0.37100
C740        C  0.03225142  0.60667136  0.77781238     0.37100
C741        C  0.10730834  0.53500505  0.72192256     0.37100
C742        C  0.10789744  0.53802176  0.77802134     0.37100
C743        C  0.03880709  0.55340626  0.64527284    -0.20400
C744        C  0.05725368  0.53552398  0.64538590    -0.20400
C745        C  0.03861499  0.56113866  0.85580640    -0.20400
C746        C  0.05783414  0.54401547  0.85593285    -0.20400
C747        C  0.02928984  0.63314866  0.73152233    -0.21500
C748        C  0.02870641  0.63417366  0.76723502    -0.21500
C749        C  0.13602572  0.53348253  0.73164620    -0.21500
C750        C  0.13640581  0.53540527  0.76739132    -0.21500
C751        C  0.02989182  0.59172378  0.68786032    -0.16800
C752        C  0.09471787  0.52934713  0.68810121    -0.16800
C753        C  0.09576789  0.53536513  0.81248647    -0.16800
C754        C  0.02858728  0.59563324  0.81214330    -0.16800
H755        H  0.02532693  0.55566437  0.62347946     0.16100
H756        H  0.06068918  0.52143411  0.62368083     0.16100
H757        H  0.02472054  0.56448373  0.87774952     0.16100
H758        H  0.06152957  0.53169351  0.87799767     0.16100
H759        H  0.02576753  0.65023290  0.71468324     0.14400
H760        H  0.02474563  0.65224086  0.78352746     0.14400
H761        H  0.15400956  0.52993841  0.71483614     0.14400
H762        H  0.15470381  0.53354107  0.78373613     0.14400
H763        H  0.07435160  0.57411126  0.71942529     0.27600
H764        H  0.07435014  0.57690365  0.78019120     0.27600
N765        N  0.00772810  0.93266110  0.80533260    -0.35100
N766        N  0.45731476  0.90787956  0.75225682    -0.55700
N767        N  0.00632114  0.92631352  0.69723444    -0.35100
N768        N  0.05661935  0.95206652  0.75034472    -0.55700
C769        C  0.48070361  0.92882710  0.82455099     0.28500
C770        C  0.03453861  0.95287059  0.82335130     0.28500
C771        C  0.47910104  0.92055678  0.67883559     0.28500
C772        C  0.03288750  0.94539673  0.67781225     0.28500
C773        C  0.43976688  0.89428032  0.78135009     0.37100
C774        C  0.43898866  0.89080973  0.72501144     0.37100
C775        C  0.07591516  0.95616288  0.77798446     0.37100
C776        C  0.07503068  0.95302600  0.72173775     0.37100
C777        C  0.49040809  0.94572977  0.85595924    -0.20400
C778        C  0.02442701  0.96081664  0.85524303    -0.20400
C779        C  0.48850335  0.93508464  0.64661759    -0.20400
C780        C  0.02250610  0.95070834  0.64593286    -0.20400
C781        C  0.41047142  0.86780686  0.77260796    -0.21500
C782        C  0.40997486  0.86563176  0.73680346    -0.21500
C783        C  0.10657424  0.95890635  0.76696108    -0.21500
C784        C  0.10602093  0.95692889  0.73121724    -0.21500
C785        C  0.44783505  0.90868388  0.81494429    -0.16800
C786        C  0.06767115  0.96270850  0.81209844    -0.16800
C787        C  0.06607889  0.95648226  0.68778492    -0.16800
C788        C  0.44633345  0.90107162  0.69018468    -0.16800
H789        H  0.47472355  0.94630952  0.87755684     0.16100
H790        H  0.03989229  0.97508332  0.87624011     0.16100
H791        H  0.47262216  0.93391571  0.62553635     0.16100
H792        H  0.03780150  0.96365573  0.62408786     0.16100
H793        H  0.39079377  0.85278852  0.79013532     0.14400
H794        H  0.38988789  0.84863583  0.72123593     0.14400
H795        H  0.12737875  0.46348362  0.78370179     0.14400
H796        H  0.12628475  0.45988601  0.71497100     0.14400
H797        H  0.00778986  0.91964605  0.78258856     0.27600
H798        H  0.00691098  0.91540839  0.72052893     0.26000
C799        C  0.01546628  0.64316847  0.62142262     0.03800
C800        C  0.48100258  0.63162819  0.62335481     0.03700
C801        C  0.46208504  0.60479015  0.64452986    -0.16800
C802        C  0.47733923  0.58983588  0.66448293     0.03800
C803        C  0.01209407  0.60211568  0.66285468     0.03700
C804        C  0.03069166  0.62810804  0.64091630    -0.16800
H805        H  0.05732487  0.63768951  0.64029617     0.05800
H806        H  0.43552096  0.59570197  0.64566792     0.05800
C807        C  0.14616963  0.51115072  0.61937913     0.03800
C808        C  0.13380375  0.97696057  0.61933196     0.03700
C809        C  0.10689394  0.95922104  0.64131430    -0.16800
C810        C  0.09300092  0.97569906  0.66296065     0.03800
C811        C  0.10592025  0.51033996  0.66318721     0.03700
C812        C  0.13220358  0.52770991  0.64064479    -0.16800
H813        H  0.14281842  0.55443524  0.64081181     0.05800
H814        H  0.09682827  0.93255159  0.64171562     0.05800
C815        C  0.38251850  0.86626972  0.88390140     0.03800
C816        C  0.36161380  0.88247002  0.88118011     0.03700
C817        C  0.37143166  0.90963243  0.85919391    -0.16800
C818        C  0.40025202  0.91976513  0.83880104     0.03800
C819        C  0.42030994  0.90273707  0.84042043     0.03700
C820        C  0.41182794  0.87703655  0.86385398    -0.16800
H821        H  0.42736669  0.86414754  0.86514710     0.05800
H822        H  0.35563204  0.92206749  0.85645367     0.05800
C823        C  0.36256253  0.87589869  0.62382266     0.03800
C824        C  0.37995325  0.85583717  0.62320559     0.03700
C825        C  0.40773115  0.86502586  0.64447704    -0.16800
C826        C  0.41842388  0.89353462  0.66594292     0.03800
C827        C  0.40163778  0.91400259  0.66511523     0.03700
C828        C  0.37411249  0.90491013  0.64418806    -0.16800
H829        H  0.36050542  0.91986566  0.64515582     0.05800
H830        H  0.42104968  0.84983970  0.64451617     0.05800
C831        C  0.13635774  0.98708095  0.87732326     0.03800
C832        C  0.14755293  0.52159883  0.87990507     0.03700
C833        C  0.13291927  0.53676828  0.85946464    -0.16800
C834        C  0.10708606  0.51798933  0.83736933     0.03800
C835        C  0.09502661  0.98337462  0.83559950     0.03700
C836        C  0.10973370  0.96817962  0.85601142    -0.16800
H837        H  0.10048963  0.94156266  0.85522155     0.05800
H838        H  0.14238904  0.56341656  0.85989788     0.05800
C839        C  0.47676895  0.63529689  0.88039695     0.03800
C840        C  0.01154244  0.64882750  0.87959288     0.03700
C841        C  0.02765252  0.63428965  0.85847253    -0.16800
C842        C  0.00991830  0.60717882  0.83714285     0.03800
C843        C  0.47511113  0.59398053  0.83696619     0.03700
C844        C  0.45880441  0.60788669  0.85898503    -0.16800
H845        H  0.43213196  0.59732719  0.85947587     0.05800
H846        H  0.05435334  0.64510082  0.85740834     0.05800
O847        O  0.11708996  0.85837182  0.47321383    -0.79400
O848        O  0.23302914  0.86115090  0.53928587    -0.64100
O849        O  0.16752040  0.84056607  0.47161521    -1.10700
C850        C  0.10636543  0.75312358  0.54477314     1.07500
O851        O  0.22703092  0.80943790  0.53638425    -0.77300
O852        O  0.17831385  0.76472048  0.49417452    -0.64900
Ni853      Ni  0.16015443  0.87509480  0.45275258     1.34900
C854        C  0.15548793  0.75800308  0.47231924     0.86200
O855        O  0.23226254  0.88902845  0.47818655    -0.77800
O856        O  0.20359175  0.89320378  0.43311160    -0.88100
C857        C  0.24273183  0.83940309  0.54662813     0.85800
O858        O  0.17465728  0.90702029  0.48950716    -0.66300
O859        O  0.13431669  0.75248281  0.54785682    -0.85600
C860        C  0.17732120  0.90294647  0.52143174     0.86600
C861        C  0.23070768  0.90046966  0.44843913     1.08200
H862        H  0.16352212  0.82450016  0.55193161     0.40000
O863        O  0.16870627  0.81659434  0.53001036    -1.08300
O864        O  0.13693967  0.77289601  0.47229475    -0.64900
Ni865      Ni  0.13348222  0.80827912  0.49936912     1.26300
O866        O  0.18560177  0.88091795  0.53155212    -0.65100
O867        O  0.10197303  0.77565340  0.52910114    -0.77400
C868        C  0.09531080  0.83072981  0.46337411     0.86000
O869        O  0.09899344  0.80465562  0.46847535    -0.64600
Ni870      Ni  0.18000546  0.78196602  0.54060447     1.27400
Ni871      Ni  0.20076473  0.85263690  0.50496077     1.26100
H872        H  0.17333301  0.82955746  0.45247954     0.40500
O873        O  0.18940285  0.76959355  0.02614017    -0.79400
O874        O  0.19756332  0.90152702  0.96543919    -0.64100
O875        O  0.18532739  0.83022159  0.02478153    -1.10700
C876        C  0.09896195  0.77035510  0.94627271     1.07500
O877        O  0.14386351  0.88453738  0.96911852    -0.77300
O878        O  0.09497698  0.82783092  0.98715165    -0.64900
Ni879      Ni  0.21899796  0.81633941  0.03078306     1.34900
C880        C  0.09967582  0.82537700  0.01898778     0.86200
O881        O  0.22740168  0.89602251  0.02467810    -0.77800
O882        O  0.25026654  0.86168987  0.03813515    -0.88100
C883        C  0.17198108  0.90590334  0.95990619     0.85800
O884        O  0.23291702  0.81802599  0.98289103    -0.66300
O885        O  0.10650171  0.79727885  0.93033404    -0.85600
C886        C  0.24118945  0.84302788  0.96373254     0.86600
C887        C  0.25037838  0.89029835  0.03762286     1.08200
H888        H  0.17065277  0.82676683  0.94829652     0.40000
O889        O  0.16022034  0.83298499  0.96764496    -1.08300
O890        O  0.12160897  0.81666384  0.02854483    -0.64900
Ni891      Ni  0.14798225  0.79970239  0.00105711     1.26300
O892        O  0.22785117  0.86281777  0.96685970    -0.65100
O893        O  0.11040317  0.76910918  0.97595248    -0.77400
C894        C  0.16019428  0.75551489  0.03895663     0.86000
O895        O  0.13959238  0.76751439  0.03529487    -0.64600
Ni896      Ni  0.12593714  0.84110136  0.94937972     1.27400
Ni897      Ni  0.19349860  0.86611491  0.99525755     1.26100
H898        H  0.17887678  0.83525096  0.04756260     0.40500
N899        N  0.49732348  0.56922838  0.19480350    -0.35100
N900        N  0.04478751  0.59190797  0.25027115    -0.55700
N901        N  0.49267391  0.57317219  0.30296169    -0.35100
N902        N  0.44536130  0.54908400  0.24739980    -0.55700
C903        C  0.02513333  0.57342162  0.17683819     0.28500
C904        C  0.47132550  0.54986646  0.17526035     0.28500
C905        C  0.01885330  0.57814959  0.32272496     0.28500
C906        C  0.46511886  0.55433002  0.32121103     0.28500
C907        C  0.06393694  0.60637299  0.22232063     0.37100
C908        C  0.06135648  0.60847155  0.27864187     0.37100
C909        C  0.42787219  0.54612343  0.21848173     0.37100
C910        C  0.42552561  0.54794483  0.27490031     0.37100
C911        C  0.01679153  0.55749006  0.14479120    -0.20400
C912        C  0.48281433  0.54275920  0.14373220    -0.20400
C913        C  0.00783080  0.56330827  0.35458917    -0.20400
C914        C  0.47385185  0.54832182  0.35366513    -0.20400
C915        C  0.09248590  0.63281804  0.23290188    -0.21500
C916        C  0.09087278  0.63410499  0.26870957    -0.21500
C917        C  0.39696108  0.54390373  0.22761919    -0.21500
C918        C  0.39547256  0.54504810  0.26342908    -0.21500
C919        C  0.05755102  0.59322659  0.18807841    -0.16800
C920        C  0.43776191  0.54019193  0.18474690    -0.16800
C921        C  0.43250332  0.54399847  0.30961190    -0.16800
C922        C  0.05210575  0.59743922  0.31299892    -0.16800
H923        H  0.03337102  0.55740939  0.12389986     0.16100
H924        H  0.46832066  0.52944038  0.12174018     0.16100
H925        H  0.02261850  0.56394615  0.37651714     0.16100
H926        H  0.45748938  0.53533838  0.37483527     0.16100
H927        H  0.11294831  0.64852363  0.21661068     0.14400
H928        H  0.10986729  0.65092568  0.28556237     0.14400
H929        H  0.37710169  0.03990164  0.21103599     0.14400
H930        H  0.37423651  0.04177009  0.27987880     0.14400
H931        H  0.49622428  0.58156663  0.21770749     0.27600
H932        H  0.49351522  0.58450946  0.27952627     0.27600
N933        N  0.43399517  0.93684485  0.30292610    -0.35100
N934        N  0.46495507  0.91162648  0.25030416    -0.55700
N935        N  0.43966967  0.93619957  0.19565626    -0.35100
N936        N  0.41039821  0.96309079  0.24809038    -0.55700
C937        C  0.45365356  0.92891368  0.32282616     0.28500
C938        C  0.42537228  0.95797396  0.32148471     0.28500
C939        C  0.46190686  0.92905079  0.17738816     0.28500
C940        C  0.43159740  0.95588755  0.17601950     0.28500
C941        C  0.46489219  0.89429986  0.27831162     0.37100
C942        C  0.46904133  0.89492648  0.22233804     0.37100
C943        C  0.39252176  0.96595645  0.27557756     0.37100
C944        C  0.39435068  0.96423075  0.21953072     0.37100
C945        C  0.45656116  0.94413895  0.35520439    -0.20400
C946        C  0.43873143  0.96263918  0.35432160    -0.20400
C947        C  0.46726323  0.94345753  0.14503104    -0.20400
C948        C  0.44790693  0.96032672  0.14410032    -0.20400
C949        C  0.46836305  0.86609072  0.26815020    -0.21500
C950        C  0.47098803  0.86648682  0.23244968    -0.21500
C951        C  0.36457212  0.96832453  0.26456662    -0.21500
C952        C  0.36572260  0.96720132  0.22882017    -0.21500
C953        C  0.46684897  0.90653111  0.31261253    -0.16800
C954        C  0.40366911  0.97069396  0.30992208    -0.16800
C955        C  0.40804442  0.96760256  0.18576014    -0.16800
C956        C  0.47472843  0.90735264  0.18847292    -0.16800
H957        H  0.46904074  0.94122557  0.37754164     0.16100
H958        H  0.43491558  0.97669003  0.37584627     0.16100
H959        H  0.48225975  0.94083506  0.12376432     0.16100
H960        H  0.44506471  0.97305710  0.12192591     0.16100
H961        H  0.47033008  0.84801534  0.28480433     0.14400
H962        H  0.47520316  0.84869659  0.21594788     0.14400
H963        H  0.34615134  0.97194795  0.28056692     0.14400
H964        H  0.34842406  0.96990822  0.21165119     0.14400
H965        H  0.42416476  0.92560667  0.27934583     0.27600
H966        H  0.42772761  0.92516404  0.21855374     0.27600
C967        C  0.36326298  0.52277594  0.37738340     0.03800
C968        C  0.35039309  0.98761705  0.37742355     0.03700
C969        C  0.36493967  0.97160133  0.35617571    -0.16800
C970        C  0.39167016  0.98939536  0.33434169     0.03800
C971        C  0.40435507  0.52458320  0.33336394     0.03700
C972        C  0.39042481  0.54081008  0.35553359    -0.16800
H973        H  0.40086614  0.56750622  0.35591217     0.05800
H974        H  0.35453518  0.94487949  0.35558835     0.05800
N975        N  0.06737299  0.99641648  0.30495143    -0.35100
N976        N  0.09205410  0.54678274  0.25165645    -0.55700
N977        N  0.07625113  0.99684740  0.19724032    -0.35100
N978        N  0.05093019  0.94689734  0.25066880    -0.55700
C979        C  0.07026186  0.52409065  0.32348236     0.28500
C980        C  0.04809449  0.96944901  0.32331287     0.28500
C981        C  0.08147972  0.52403847  0.17857421     0.28500
C982        C  0.05815945  0.96994701  0.17774018     0.28500
C983        C  0.10507970  0.56479231  0.28052622     0.37100
C984        C  0.10965104  0.56475835  0.22457860     0.37100
C985        C  0.04688937  0.92799238  0.27870537     0.37100
C986        C  0.05079842  0.92839200  0.22237259     0.37100
C987        C  0.05333420  0.51431297  0.35486528    -0.20400
C988        C  0.03967392  0.97947349  0.35503448    -0.20400
C989        C  0.06762182  0.51413342  0.14614527    -0.20400
C990        C  0.05292741  0.97990568  0.14557270    -0.20400
C991        C  0.13171344  0.59403012  0.27187048    -0.21500
C992        C  0.13455929  0.59403134  0.23619150    -0.21500
C993        C  0.04500979  0.89746840  0.26821552    -0.21500
C994        C  0.04744419  0.89771142  0.23244592    -0.21500
C995        C  0.08998040  0.55702071  0.31364203    -0.16800
C996        C  0.03971036  0.93634537  0.31262806    -0.16800
C997        C  0.04760213  0.93687120  0.18807324    -0.16800
C998        C  0.09971681  0.55701100  0.18997151    -0.16800
H999        H  0.05209412  0.53001535  0.37614619     0.16100
H1000       H  0.02607979  0.96395938  0.37632563     0.16100
H1001       H  0.06853226  0.52973510  0.12485687     0.16100
H1002       H  0.04053233  0.96431056  0.12369060     0.16100
H1003       H  0.14635761  0.61400926  0.28925982     0.14400
H1004       H  0.15175224  0.61396980  0.22054846     0.14400
H1005       H  0.54038507  0.87657925  0.28443885     0.14400
H1006       H  0.04499373  0.87704523  0.21569134     0.14400
H1007       H  0.08071664  0.99657697  0.28241363     0.27600
H1008       H  0.08688133  0.99679022  0.22086726     0.27600
C1009       C  0.37204931  0.51652428  0.11582161     0.03800
C1010       C  0.35937257  0.98225811  0.11599448     0.03700
C1011       C  0.37264447  0.96685123  0.13778490    -0.16800
C1012       C  0.39806286  0.98534924  0.16030804     0.03800
C1013       C  0.41150568  0.51991792  0.15980251     0.03700
C1014       C  0.39850997  0.53530343  0.13756701    -0.16800
H1015       H  0.40838251  0.56197451  0.13791044     0.05800
H1016       H  0.36225507  0.94015031  0.13823497     0.05800
C1017       C  0.13436227  0.62266391  0.38075681     0.03800
C1018       C  0.11593398  0.64170148  0.38217975     0.03700
C1019       C  0.08807983  0.63198540  0.36099141    -0.16800
C1020       C  0.07870053  0.60426926  0.33856943     0.03800
C1021       C  0.09636102  0.58466977  0.33884056     0.03700
C1022       C  0.12368360  0.59400582  0.35995487    -0.16800
H1023       H  0.13807877  0.57982823  0.35839126     0.05800
H1024       H  0.07404564  0.64648501  0.36125189     0.05800
C1025       C  0.14518203  0.62233324  0.12295909     0.03800
C1026       C  0.12333801  0.63752190  0.11946739     0.03700
C1027       C  0.09388267  0.62588261  0.13955714    -0.16800
C1028       C  0.08612654  0.60058905  0.16350511     0.03800
C1029       C  0.10708614  0.58460040  0.16571547     0.03700
C1030       C  0.13621339  0.59571378  0.14573350    -0.16800
H1031       H  0.15259569  0.58398684  0.14882979     0.05800
H1032       H  0.07717963  0.63736897  0.13744282     0.05800
C1033       C  0.01655663  0.86816089  0.37864302     0.03800
C1034       C  0.48206395  0.85609574  0.38022189     0.03700
C1035       C  0.46640974  0.87028007  0.35997660    -0.16800
C1036       C  0.48472998  0.89618701  0.33775954     0.03800
C1037       C  0.01957921  0.90898565  0.33649307     0.03700
C1038       C  0.03516654  0.89476447  0.35708094    -0.16800
H1039       H  0.06177391  0.90431334  0.35620201     0.05800
H1040       H  0.43975076  0.86027106  0.36049553     0.05800
C1041       C  0.49211300  0.85579728  0.11949876     0.03800
C1042       C  0.02691946  0.86932269  0.11883097     0.03700
C1043       C  0.04478773  0.89630676  0.14084567    -0.16800
C1044       C  0.02840487  0.90961331  0.16350478     0.03800
C1045       C  0.49359619  0.89605228  0.16357230     0.03700
C1046       C  0.47594525  0.86967949  0.14135435    -0.16800
H1047       H  0.44923802  0.85885442  0.14230835     0.05800
H1048       H  0.07146010  0.90689213  0.14046576     0.05800
C1049       C  0.15258020  0.69707438  0.04352932     0.25100
C1050       C  0.14993315  0.72478504  0.05833996    -0.23000
C1051       C  0.13735923  0.72326071  0.09234492     0.20000
C1052       C  0.12888249  0.69499360  0.11192980     0.25000
C1053       C  0.13118385  0.66687524  0.09730297    -0.23000
C1054       C  0.14199188  0.66786742  0.06233258     0.19900
F1055       F  0.14258888  0.64075928  0.04643062    -0.12900
F1056       F  0.16492252  0.69816046  0.01071503    -0.15300
F1057       F  0.11960288  0.69565345  0.14575320    -0.15300
F1058       F  0.13475545  0.74985278  0.10722975    -0.12900
C1059       C  0.05801077  0.84762585  0.03401877     0.25100
C1060       C  0.07944911  0.83426101  0.04512380    -0.23000
C1061       C  0.08297106  0.83217534  0.08120885     0.20000
C1062       C  0.06585981  0.84344114  0.10529573     0.25000
C1063       C  0.04484857  0.85683455  0.09384187    -0.23000
C1064       C  0.04116344  0.85884305  0.05808975     0.19900
F1065       F  0.02197892  0.87282967  0.04637734    -0.12900
F1066       F  0.05389921  0.85098218  0.99974593    -0.15300
F1067       F  0.06973416  0.84121421  0.13984841    -0.15300
F1068       F  0.10329405  0.81972387  0.09331844    -0.12900
C1069       C  0.30079334  0.96189398  0.09624511     0.25100
C1070       C  0.33182578  0.96125414  0.09333149    -0.23000
C1071       C  0.33649175  0.93954710  0.06919971     0.20000
C1072       C  0.31030496  0.91780776  0.04944108     0.25000
C1073       C  0.27893298  0.91745244  0.05338632    -0.23000
C1074       C  0.27464107  0.94043779  0.07599484     0.19900
F1075       F  0.24460241  0.94052897  0.08030593    -0.12900
F1076       F  0.29528733  0.98202918  0.11991673    -0.15300
F1077       F  0.31544924  0.89658759  0.02687076    -0.15300
F1078       F  0.36641283  0.93909287  0.06520355    -0.12900
C1079       C  0.13973084  0.73051334  0.41331052     0.25100
C1080       C  0.14773917  0.72939875  0.44817643    -0.23000
C1081       C  0.14382283  0.69906369  0.46154199     0.20000
C1082       C  0.13209972  0.67048088  0.44062244     0.25000
C1083       C  0.12561305  0.67175813  0.40522520    -0.23000
C1084       C  0.12942352  0.70214972  0.39184374     0.19900
F1085       F  0.12372027  0.70454840  0.35780672    -0.12900
F1086       F  0.14214432  0.75914241  0.39996217    -0.15300
F1087       F  0.12634191  0.64131088  0.45527609    -0.15300
F1088       F  0.14952205  0.69666011  0.49559544    -0.12900
C1089       C  0.05237850  0.85044042  0.45839234     0.25100
C1090       C  0.06761864  0.83106955  0.44452425    -0.23000
C1091       C  0.06352343  0.82137194  0.40928598     0.20000
C1092       C  0.04650614  0.83311621  0.38764079     0.25000
C1093       C  0.03333484  0.85437556  0.40121855    -0.23000
C1094       C  0.03546391  0.86208526  0.43688211     0.19900
F1095       F  0.02272530  0.88244661  0.45048212    -0.12900
F1096       F  0.05611204  0.86016577  0.49237418    -0.15300
F1097       F  0.04392771  0.82482013  0.35328515    -0.15300
F1098       F  0.07856761  0.80319100  0.39524656    -0.12900
C1099       C  0.29229367  0.92483599  0.44021343     0.25100
C1100       C  0.26162529  0.92351853  0.43099117    -0.23000
C1101       C  0.26079089  0.94432319  0.40452411     0.20000
C1102       C  0.28980641  0.96570534  0.38778015     0.25000
C1103       C  0.32017753  0.96689505  0.39714734    -0.23000
C1104       C  0.32123893  0.94620458  0.42327456     0.19900
F1105       F  0.35004791  0.44709837  0.43169104    -0.12900
F1106       F  0.29429057  0.90473375  0.46482854    -0.15300
F1107       F  0.28815876  0.98446357  0.36148264    -0.15300
F1108       F  0.23193092  0.94408281  0.39466534    -0.12900
C1109       C  0.05432395  0.67947689  0.92331788     0.25100
C1110       C  0.03201454  0.67950073  0.89861475    -0.23000
C1111       C  0.03151010  0.70935409  0.88970489     0.20000
C1112       C  0.05307763  0.73891759  0.90531885     0.25000
C1113       C  0.07572785  0.73909261  0.92997793    -0.23000
C1114       C  0.07601027  0.70897097  0.93890279     0.19900
F1115       F  0.09800683  0.70807347  0.96183512    -0.12900
F1116       F  0.05537727  0.65083441  0.93195367    -0.15300
F1117       F  0.05170909  0.76730148  0.89625461    -0.15300
F1118       F  0.51096647  0.71000932  0.86486970    -0.12900
C1119       C  0.14407288  0.96887865  0.93543852     0.25100
C1120       C  0.15049237  0.97032409  0.89949690    -0.23000
C1121       C  0.17005465  0.95558813  0.88497512     0.20000
C1122       C  0.18140570  0.93781591  0.90600305     0.25000
C1123       C  0.17289883  0.93440700  0.94157259    -0.23000
C1124       C  0.15525456  0.95109730  0.95633393     0.19900
F1125       F  0.14643239  0.94772767  0.99057894    -0.12900
F1126       F  0.12482708  0.48268495  0.95092927    -0.15300
F1127       F  0.19772057  0.92121512  0.89108192    -0.15300
F1128       F  0.17692293  0.95729303  0.85028452    -0.12900
C1129       C  0.29964614  0.88047228  0.56290048     0.25100
C1130       C  0.27329616  0.84905754  0.56652664    -0.23000
C1131       C  0.27592852  0.82707898  0.59028761     0.20000
C1132       C  0.30454704  0.83603047  0.60946943     0.25000
C1133       C  0.33150618  0.86677575  0.60456297    -0.23000
C1134       C  0.32853159  0.88915382  0.58157539     0.19900
F1135       F  0.35393171  0.91924791  0.57666835    -0.12900
F1136       F  0.29780045  0.90255695  0.54069343    -0.15300
F1137       F  0.30564924  0.81491263  0.63341949    -0.15300
F1138       F  0.25027581  0.79730614  0.59589560    -0.12900
C1139       C  0.27644996  0.82894079  0.91999753     0.25100
C1140       C  0.27004556  0.85236388  0.93979408    -0.23000
C1141       C  0.29308642  0.88570483  0.93878246     0.20000
C1142       C  0.32259348  0.89516776  0.91992032     0.25000
C1143       C  0.32940824  0.87179711  0.90040221    -0.23000
C1144       C  0.30526523  0.83879622  0.89936678     0.19900
F1145       F  0.30931684  0.81614879  0.87810468    -0.12900
F1146       F  0.25462615  0.79669202  0.92017382    -0.15300
F1147       F  0.34497723  0.92722760  0.92158971    -0.15300
F1148       F  0.28789486  0.90913985  0.95764276    -0.12900
C1149       C  0.14088128  0.95911745  0.55944635     0.25100
C1150       C  0.14637178  0.95881754  0.59496870    -0.23000
C1151       C  0.16331861  0.94113534  0.60669630     0.20000
C1152       C  0.17451720  0.92372238  0.58291043     0.25000
C1153       C  0.16883870  0.92378808  0.54700343    -0.23000
C1154       C  0.15213325  0.94214333  0.53568912     0.19900
F1155       F  0.14539830  0.94287867  0.50162884    -0.12900
F1156       F  0.12353088  0.97512590  0.54781888    -0.15300
F1157       F  0.19064599  0.90672104  0.59508551    -0.15300
F1158       F  0.16903279  0.94081537  0.64112064    -0.12900
C1159       C  0.07090090  0.69340872  0.54887255     0.25100
C1160       C  0.07834901  0.72569717  0.56059548    -0.23000
C1161       C  0.06398919  0.73080955  0.59169001     0.20000
C1162       C  0.04294733  0.70383652  0.61129801     0.25000
C1163       C  0.03619773  0.67159853  0.59993502    -0.23000
C1164       C  0.05017002  0.66652404  0.56857536     0.19900
F1165       F  0.04447439  0.63556048  0.55763961    -0.12900
F1166       F  0.08484293  0.68805134  0.51900298    -0.15300
F1167       F  0.03069256  0.70914489  0.64232128    -0.15300
F1168       F  0.07231169  0.76185944  0.60426885    -0.12900
C1169       C  0.44534156  0.65031800  0.54435875     0.25100
C1170       C  0.42890869  0.66830294  0.55886523    -0.23000
C1171       C  0.43177937  0.67655613  0.59448913     0.20000
C1172       C  0.44936166  0.66516921  0.61571101     0.25000
C1173       C  0.46435756  0.64580848  0.60127522    -0.23000
C1174       C  0.46291355  0.63913987  0.56541902     0.19900
F1175       F  0.47658563  0.61979009  0.55123263    -0.12900
F1176       F  0.44198710  0.64121332  0.51019309    -0.15300
F1177       F  0.45046223  0.67163200  0.65046268    -0.15300
F1178       F  0.41486164  0.69264170  0.60920620    -0.12900
C1179       C  0.34136659  0.55376858  0.46225469     0.25100
C1180       C  0.32847799  0.57560321  0.45116044    -0.23000
C1181       C  0.32572444  0.57856757  0.41506950     0.20000
C1182       C  0.33681581  0.56128570  0.39096497     0.25000
C1183       C  0.35057188  0.54056511  0.40240550    -0.23000
C1184       C  0.35254618  0.53687774  0.43818831     0.19900
F1185       F  0.36653723  0.51771913  0.44996847    -0.12900
F1186       F  0.34429752  0.54930754  0.49653728    -0.15300
F1187       F  0.33415562  0.56477276  0.35640961    -0.15300
F1188       F  0.31270009  0.59842846  0.40297324    -0.12900
C1189       C  0.23542519  0.55317116  0.59169782     0.25100
C1190       C  0.23474557  0.57385160  0.56502906    -0.23000
C1191       C  0.20407393  0.57210778  0.55509372     0.20000
C1192       C  0.17505861  0.55096270  0.57212595     0.25000
C1193       C  0.17616158  0.53109082  0.59907431    -0.23000
C1194       C  0.20643587  0.53222296  0.60863071     0.19900
F1195       F  0.20806722  0.51397478  0.63543800    -0.12900
F1196       F  0.26416746  0.55329824  0.60180942    -0.15300
F1197       F  0.14586765  0.55023755  0.56275396    -0.15300
F1198       F  0.20212996  0.59165789  0.52984541    -0.12900
C1199       C  0.42882704  0.80725818  0.45467756     0.25100
C1200       C  0.42121912  0.77482943  0.44343002    -0.23000
C1201       C  0.43517359  0.76918441  0.41230902     0.20000
C1202       C  0.45563531  0.79577680  0.39195577     0.25000
C1203       C  0.46192002  0.82811222  0.40244833    -0.23000
C1204       C  0.44885526  0.83376678  0.43413812     0.19900
F1205       F  0.45479185  0.86490046  0.44463106    -0.12900
F1206       F  0.41553261  0.81305974  0.48479002    -0.15300
F1207       F  0.46789795  0.78996424  0.36116544    -0.15300
F1208       F  0.42685428  0.73793316  0.40036350    -0.12900
C1209       C  0.22141601  0.67365940  0.41153461     0.25100
C1210       C  0.22579350  0.65158927  0.43378611    -0.23000
C1211       C  0.20052017  0.61954296  0.43721971     0.20000
C1212       C  0.17073792  0.61040480  0.42038023     0.25000
C1213       C  0.16598896  0.63276687  0.39890312    -0.23000
C1214       C  0.19199138  0.66409791  0.39373632     0.19900
F1215       F  0.18918308  0.68516193  0.37083250    -0.12900
F1216       F  0.24610032  0.70404558  0.40594381    -0.15300
F1217       F  0.14629858  0.57976326  0.42544471    -0.15300
F1218       F  0.20435373  0.59713334  0.45734257    -0.12900
C1219       C  0.36418564  0.79484076  0.61289227     0.25100
C1220       C  0.36996072  0.82594076  0.59982041    -0.23000
C1221       C  0.36545300  0.82832027  0.56411492     0.20000
C1222       C  0.35386535  0.80025284  0.54242611     0.25000
C1223       C  0.34817084  0.76923023  0.55535381    -0.23000
C1224       C  0.35391418  0.76687196  0.59072582     0.19900
F1225       F  0.34936218  0.73743968  0.60383486    -0.12900
F1226       F  0.36816085  0.79145241  0.64717912    -0.15300
F1227       F  0.35010516  0.80380731  0.50811737    -0.15300
F1228       F  0.37325477  0.85814081  0.54989900    -0.12900
C1229       C  0.20703412  0.54550806  0.89609976     0.25100
C1230       C  0.17486651  0.54224973  0.90279004    -0.23000
C1231       C  0.16865908  0.55887144  0.93145205     0.20000
C1232       C  0.19451445  0.57986555  0.95213401     0.25000
C1233       C  0.22690705  0.58424726  0.94463867    -0.23000
C1234       C  0.23289802  0.56613130  0.91720693     0.19900
F1235       F  0.26405685  0.57028742  0.90930950    -0.12900
F1236       F  0.21360495  0.53000559  0.86816447    -0.15300
F1237       F  0.18811151  0.59667909  0.97898104    -0.15300
F1238       F  0.13756163  0.55507323  0.93904008    -0.12900
C1239       C  0.22895357  0.67496965  0.08034359     0.25100
C1240       C  0.23523051  0.65083543  0.06166973    -0.23000
C1241       C  0.21275859  0.61750220  0.06491030     0.20000
C1242       C  0.18378289  0.60863694  0.08459675     0.25000
C1243       C  0.17707449  0.63264435  0.10307379    -0.23000
C1244       C  0.20075130  0.66582128  0.10191464     0.19900
F1245       F  0.19646151  0.68944662  0.12129563    -0.12900
F1246       F  0.25015509  0.70731034  0.07787474    -0.15300
F1247       F  0.16155135  0.57649062  0.08434613    -0.15300
F1248       F  0.21776727  0.59339221  0.04719309    -0.12900
C1249       C  0.43984712  0.66343029  0.89414347     0.25100
C1250       C  0.45904958  0.64792562  0.90543873    -0.23000
C1251       C  0.46167339  0.64448993  0.94112334     0.20000
C1252       C  0.44518861  0.65599866  0.96530780     0.25000
C1253       C  0.42513499  0.67100913  0.95434858    -0.23000
C1254       C  0.42309521  0.67500592  0.91835645     0.19900
F1255       F  0.40482385  0.68991800  0.90649099    -0.12900
F1256       F  0.43758746  0.66759744  0.85966435    -0.15300
F1257       F  0.44825123  0.65134085  0.99951053    -0.15300
F1258       F  0.47959792  0.62902311  0.95260245    -0.12900
C1259       C  0.33042685  0.57025512  0.09330422     0.25100
C1260       C  0.33230680  0.56961601  0.05690290    -0.23000
C1261       C  0.34430467  0.54894242  0.03964989     0.20000
C1262       C  0.35682659  0.53104001  0.05869605     0.25000
C1263       C  0.35727131  0.53366941  0.09519369    -0.23000
C1264       C  0.34305109  0.55252479  0.11238434     0.19900
F1265       F  0.34228792  0.55443518  0.14767154    -0.12900
F1266       F  0.31938932  0.59059954  0.11028893    -0.15300
F1267       F  0.37018603  0.51272043  0.04153247    -0.15300
F1268       F  0.34614045  0.54813856  0.00435670    -0.12900
C1269       C  0.47116371  0.79523021  0.11041319     0.25100
C1270       C  0.47159752  0.82517530  0.10042789    -0.23000
C1271       C  0.44989899  0.82526567  0.07500298     0.20000
C1272       C  0.42825216  0.79571367  0.05935965     0.25000
C1273       C  0.42757412  0.76542823  0.06941226    -0.23000
C1274       C  0.44934924  0.76559933  0.09515290     0.19900
F1275       F  0.44960220  0.73712594  0.10572797    -0.12900
F1276       F  0.49101687  0.79461474  0.13604392    -0.15300
F1277       F  0.40727386  0.79676550  0.03522897    -0.15300
F1278       F  0.44939613  0.85400199  0.06571979    -0.12900
C1279       C  0.36552306  0.83600529  0.94058447     0.25100
C1280       C  0.37328621  0.83629659  0.90481251    -0.23000
C1281       C  0.37101557  0.80710963  0.88816448     0.20000
C1282       C  0.36083820  0.77814050  0.90674322     0.25000
C1283       C  0.35214570  0.77764845  0.94203137    -0.23000
C1284       C  0.35447390  0.80660890  0.95898651     0.19900
F1285       F  0.34680478  0.80650892  0.99339613    -0.12900
F1286       F  0.36866223  0.86407646  0.95758276    -0.15300
F1287       F  0.35863018  0.75021662  0.89006848    -0.15300
F1288       F  0.37749969  0.80637517  0.85352308    -0.12900
O1289       O  0.86176781  0.11970047  0.03030887    -0.79400
O1290       O  0.86318978  0.23537681  0.96433107    -0.64100
O1291       O  0.84396151  0.17036468  0.03166106    -1.10700
C1292       C  0.75497734  0.11111495  0.96060451     1.07500
O1293       O  0.81264743  0.23179071  0.97277487    -0.77300
O1294       O  0.77001266  0.18321778  0.01577679    -0.64900
Ni1295     Ni  0.87886572  0.16327537  0.04994765     1.34900
C1296       C  0.76281313  0.15886302  0.03561065     0.86200
O1297       O  0.89271905  0.23499777  0.02353810    -0.77800
O1298       O  0.89753714  0.20721187  0.06896063    -0.88100
C1299       C  0.84204120  0.24660545  0.96069901     0.85800
O1300       O  0.90986054  0.17715894  0.01220600    -0.66300
O1301       O  0.75379848  0.13915304  0.96052019    -0.85600
C1302       C  0.90505622  0.17950923  0.98038151     0.86600
C1303       C  0.90458077  0.23407893  0.05307441     1.08200
H1304       H  0.82549402  0.16765187  0.95164200     0.40000
O1305       O  0.81870556  0.17243029  0.97435115    -1.08300
O1306       O  0.77640734  0.13927829  0.03221566    -0.64900
Ni1307     Ni  0.81128432  0.13683710  0.00374448     1.26300
O1308       O  0.88271299  0.18762267  0.97085352    -0.65100
O1309       O  0.77827834  0.10626369  0.97392131    -0.77400
C1310       C  0.83357582  0.09793752  0.03880362     0.86000
O1311       O  0.80783182  0.10187575  0.03327779    -0.64600
Ni1312     Ni  0.78412099  0.18489171  0.96799229     1.27400
Ni1313     Ni  0.85553551  0.20356845  0.99835747     1.26100
H1314       H  0.83322217  0.17620449  0.05098629     0.40500
O1315       O  0.77237259  0.19203184  0.46319970    -0.79400
O1316       O  0.89796024  0.19603008  0.53542073    -0.64100
O1317       O  0.83089290  0.18530362  0.47113666    -1.10700
C1318       C  0.76645246  0.09806317  0.54789718     1.07500
O1319       O  0.88119790  0.14258719  0.52869895    -0.77300
O1320       O  0.82514817  0.09386479  0.50856806    -0.64900
Ni1321     Ni  0.81936370  0.22005226  0.46150279     1.34900
C1322       C  0.82209844  0.09807736  0.47675041     0.86200
O1323       O  0.89708592  0.22666034  0.47540554    -0.77800
O1324       O  0.86506066  0.25015992  0.45662434    -0.88100
C1325       C  0.90200628  0.17012323  0.54001078     0.85800
O1326       O  0.81886881  0.23541808  0.50849279    -0.66300
O1327       O  0.79306041  0.10488197  0.56403990    -0.85600
C1328       C  0.84082711  0.24152301  0.53125961     0.86600
C1329       C  0.89294696  0.24949569  0.46012199     1.08200
H1330       H  0.82320468  0.16931954  0.54806535     0.40000
O1331       O  0.83002667  0.15925264  0.52881489    -1.08300
O1332       O  0.81430444  0.12061253  0.46707076    -0.64900
Ni1333     Ni  0.79827846  0.14815128  0.49400654     1.26300
O1334       O  0.85970637  0.22700353  0.53125365    -0.65100
O1335       O  0.76578315  0.11069547  0.51861333    -0.77400
C1336       C  0.75735029  0.16221235  0.45227151     0.86000
O1337       O  0.76775188  0.14081239  0.45851283    -0.64600
Ni1338     Ni  0.83725888  0.12435598  0.54675845     1.27400
Ni1339     Ni  0.86477414  0.19290332  0.50323853     1.26100
H1340       H  0.83710395  0.17836719  0.44918392     0.40500
N1341       N  0.93030876  0.00247417  0.69680320    -0.35100
N1342       N  0.91147958  0.45471083  0.75237501    -0.55700
N1343       N  0.92884876  0.00564531  0.80463515    -0.35100
N1344       N  0.94865495  0.05363592  0.75008141    -0.55700
C1345       C  0.92723283  0.47554361  0.67919947     0.28500
C1346       C  0.94830430  0.02914709  0.67745732     0.28500
C1347       C  0.92603769  0.47973123  0.82460721     0.28500
C1348       C  0.94697276  0.03325855  0.82303813     0.28500
C1349       C  0.89639847  0.43588047  0.72464007     0.37100
C1350       C  0.89565044  0.43760504  0.78066266     0.37100
C1351       C  0.95009237  0.07120714  0.72166176     0.37100
C1352       C  0.94955206  0.07275978  0.77813002     0.37100
C1353       C  0.94224820  0.48481177  0.64683218    -0.20400
C1354       C  0.95576579  0.01863701  0.64550382    -0.20400
C1355       C  0.94115303  0.49069831  0.85630534    -0.20400
C1356       C  0.95447273  0.02462481  0.85485458    -0.20400
C1357       C  0.87037019  0.40699618  0.73525666    -0.21500
C1358       C  0.86992094  0.40808434  0.77098299    -0.21500
C1359       C  0.95107892  0.10150676  0.73171022    -0.21500
C1360       C  0.95072331  0.10247662  0.76756108    -0.21500
C1361       C  0.90891963  0.44274853  0.69045106    -0.16800
C1362       C  0.95646441  0.06235661  0.68762264    -0.16800
C1363       C  0.95516255  0.06572463  0.81224323    -0.16800
C1364       C  0.90750102  0.44651944  0.81451504    -0.16800
H1365       H  0.94266080  0.46875257  0.62552773     0.16100
H1366       H  0.96826285  0.03379645  0.62356693     0.16100
H1367       H  0.94151913  0.47582731  0.87776314     0.16100
H1368       H  0.96723030  0.04101021  0.87607845     0.16100
H1369       H  0.85444314  0.38664348  0.71901023     0.14400
H1370       H  0.85362547  0.38873690  0.78785317     0.14400
H1371       H  0.45377410  0.12154565  0.71503298     0.14400
H1372       H  0.95308948  0.12336186  0.78390299     0.14400
H1373       H  0.91793358  0.00261152  0.71999400     0.27600
H1374       H  0.91645361  0.00449771  0.78187820     0.27600
N1375       N  0.56309822  0.06169048  0.69554545    -0.35100
N1376       N  0.53437348  0.08823667  0.74911405    -0.55700
N1377       N  0.56357893  0.06662184  0.80300654    -0.35100
N1378       N  0.59051260  0.03821467  0.74939925    -0.55700
C1379       C  0.54231710  0.06862718  0.67640540     0.28500
C1380       C  0.57181602  0.04084938  0.67665121     0.28500
C1381       C  0.54218457  0.07433667  0.82225255     0.28500
C1382       C  0.57300602  0.04778625  0.82252928     0.28500
C1383       C  0.53205717  0.10402125  0.72082336     0.37100
C1384       C  0.53128309  0.10577501  0.77681647     0.37100
C1385       C  0.60735736  0.03507725  0.72105636     0.37100
C1386       C  0.60811343  0.03823974  0.77716044     0.37100
C1387       C  0.53865171  0.05298726  0.64417873    -0.20400
C1388       C  0.55727001  0.03528691  0.64437128    -0.20400
C1389       C  0.53886985  0.06127942  0.85512032    -0.20400
C1390       C  0.55841429  0.04449914  0.85530529    -0.20400
C1391       C  0.52799240  0.13202836  0.73051267    -0.21500
C1392       C  0.52745447  0.13311182  0.76620294    -0.21500
C1393       C  0.63615388  0.03368422  0.73072024    -0.21500
C1394       C  0.63663300  0.03568756  0.76645729    -0.21500
C1395       C  0.52907237  0.09083217  0.68686780    -0.16800
C1396       C  0.59472700  0.02934299  0.68723758    -0.16800
C1397       C  0.59613704  0.03569206  0.81169005    -0.16800
C1398       C  0.52794620  0.09497324  0.81120493    -0.16800
H1399       H  0.52525890  0.05523477  0.62230141     0.16100
H1400       H  0.56090954  0.02130627  0.62267270     0.16100
H1401       H  0.52496704  0.06458638  0.87708136     0.16100
H1402       H  0.56242385  0.03247483  0.87744788     0.16100
H1403       H  0.52433381  0.14902207  0.71365949     0.14400
H1404       H  0.52340387  0.15114230  0.78246897     0.14400
H1405       H  0.65414250  0.03018627  0.71387539     0.14400
H1406       H  0.65502585  0.03395017  0.78275523     0.14400
H1407       H  0.57370420  0.07358625  0.71858930     0.27600
H1408       H  0.57395101  0.07660996  0.77917162     0.27600
N1409       N  0.50751862  0.43229683  0.80627085    -0.35100
N1410       N  0.95704044  0.40778395  0.75309825    -0.55700
N1411       N  0.50592654  0.42648291  0.69820853    -0.35100
N1412       N  0.55630769  0.45194232  0.75131759    -0.55700
C1413       C  0.98050444  0.42843674  0.82546938     0.28500
C1414       C  0.53429139  0.45241061  0.82438022     0.28500
C1415       C  0.97870772  0.42090215  0.67986631     0.28500
C1416       C  0.53250823  0.44563179  0.67885972     0.28500
C1417       C  0.93961604  0.39401732  0.78217616     0.37100
C1418       C  0.93869294  0.39076146  0.72585393     0.37100
C1419       C  0.57562605  0.45595324  0.77892022     0.37100
C1420       C  0.57467407  0.45292205  0.72267131     0.37100
C1421       C  0.99015347  0.44515844  0.85698420    -0.20400
C1422       C  0.52415932  0.46019267  0.85634409    -0.20400
C1423       C  0.98812731  0.43568213  0.64778090    -0.20400
C1424       C  0.52213747  0.45120689  0.64709235    -0.20400
C1425       C  0.91037124  0.36746842  0.77343349    -0.21500
C1426       C  0.90978754  0.36542222  0.73762282    -0.21500
C1427       C  0.60625889  0.45868118  0.76784307    -0.21500
C1428       C  0.60566117  0.45675708  0.73209607    -0.21500
C1429       C  0.94768113  0.40842098  0.81574735    -0.16800
C1430       C  0.56740563  0.46238988  0.81307412    -0.16800
C1431       C  0.56569417  0.45645690  0.68874750    -0.16800
C1432       C  0.94594284  0.40123852  0.69110364    -0.16800
H1433       H  0.97443169  0.44568168  0.87857472     0.16100
H1434       H  0.53960233  0.47435992  0.87740320     0.16100
H1435       H  0.97225931  0.43466211  0.62674795     0.16100
H1436       H  0.53744042  0.46418242  0.62527083     0.16100
H1437       H  0.89077355  0.35232751  0.79097229     0.14400
H1438       H  0.88970809  0.34841538  0.72205516     0.14400
H1439       H  0.62769025  0.96377223  0.78285012     0.14400
H1440       H  0.62666689  0.96005634  0.71413232     0.14400
H1441       H  0.50757093  0.41939537  0.78343788     0.27600
H1442       H  0.50653075  0.41534482  0.72134123     0.26000
C1443       C  0.51529084  0.14299351  0.62092226     0.03800
C1444       C  0.98083864  0.13176857  0.62288434     0.03700
C1445       C  0.96171655  0.10483862  0.64387499    -0.16800
C1446       C  0.97672483  0.08946612  0.66356939     0.03800
C1447       C  0.51143263  0.10133690  0.66180028     0.03700
C1448       C  0.53022174  0.12739185  0.64005423    -0.16800
H1449       H  0.55683218  0.13669096  0.63942272     0.05800
H1450       H  0.93518196  0.09601524  0.64509407     0.05800
C1451       C  0.64655297  0.01168928  0.61858719     0.03800
C1452       C  0.63312851  0.47639684  0.61999889     0.03700
C1453       C  0.60624584  0.45883131  0.64210188    -0.16800
C1454       C  0.59260968  0.47550222  0.66385575     0.03800
C1455       C  0.60611305  0.01052612  0.66230995     0.03700
C1456       C  0.63235251  0.02807193  0.63976953    -0.16800
H1457       H  0.64277102  0.05478843  0.63991448     0.05800
H1458       H  0.59597371  0.43215029  0.64248339     0.05800
C1459       C  0.88240772  0.36612694  0.88447324     0.03800
C1460       C  0.86168361  0.38250075  0.88188681     0.03700
C1461       C  0.87165704  0.40985938  0.86018174    -0.16800
C1462       C  0.90041773  0.41987961  0.83972741     0.03800
C1463       C  0.92022680  0.40257571  0.84115828     0.03700
C1464       C  0.91168179  0.37681166  0.86447002    -0.16800
H1465       H  0.92710027  0.36378054  0.86564497     0.05800
H1466       H  0.85598211  0.42245987  0.85764040     0.05800
C1467       C  0.86192199  0.37592721  0.62498064     0.03800
C1468       C  0.87924468  0.35578758  0.62445769     0.03700
C1469       C  0.90709660  0.36503688  0.64564455    -0.16800
C1470       C  0.91797872  0.39369144  0.66690130     0.03800
C1471       C  0.90126547  0.41422981  0.66599082     0.03700
C1472       C  0.87363186  0.40505950  0.64517896    -0.16800
H1473       H  0.86010527  0.42009175  0.64605067     0.05800
H1474       H  0.92038257  0.34982244  0.64572840     0.05800
C1475       C  0.63602319  0.48708369  0.87836028     0.03800
C1476       C  0.64801352  0.02160572  0.87890466     0.03700
C1477       C  0.63340521  0.03690159  0.85857451    -0.16800
C1478       C  0.60747540  0.01823178  0.83650939     0.03800
C1479       C  0.59472521  0.48314731  0.83653779     0.03700
C1480       C  0.60945131  0.46806898  0.85704900    -0.16800
H1481       H  0.60028860  0.44145868  0.85631164     0.05800
H1482       H  0.64295965  0.06355542  0.85907817     0.05800
C1483       C  0.97650955  0.13469272  0.87995420     0.03800
C1484       C  0.51126971  0.14801231  0.87909078     0.03700
C1485       C  0.52722477  0.13344059  0.85781638    -0.16800
C1486       C  0.50936228  0.10658508  0.83624353     0.03800
C1487       C  0.97457911  0.09375640  0.83587812     0.03700
C1488       C  0.95840837  0.10759891  0.85819102    -0.16800
H1489       H  0.93174443  0.09720953  0.85867438     0.05800
H1490       H  0.55392133  0.14407700  0.85678235     0.05800
O1491       O  0.61649226  0.35760614  0.47238807    -0.79400
O1492       O  0.73309702  0.36164806  0.53893514    -0.64100
O1493       O  0.66750224  0.34065981  0.47109975    -1.10700
C1494       C  0.60664384  0.25307797  0.54455478     1.07500
O1495       O  0.72723963  0.31001810  0.53600881    -0.77300
O1496       O  0.67844414  0.26430651  0.49484192    -0.64900
Ni1497     Ni  0.65969637  0.37498044  0.45229207     1.34900
C1498       C  0.65606256  0.25773784  0.47247950     0.86200
O1499       O  0.73207879  0.38938798  0.47775585    -0.77800
O1500       O  0.70323592  0.39373326  0.43291874    -0.88100
C1501       C  0.74283397  0.33993231  0.54638221     0.85800
O1502       O  0.67342239  0.40671907  0.48928182    -0.66300
O1503       O  0.63477416  0.25308098  0.54848533    -0.85600
C1504       C  0.67651925  0.40279247  0.52115474     0.86600
C1505       C  0.73039997  0.40093525  0.44811203     1.08200
H1506       H  0.66328796  0.32472954  0.55131524     0.40000
O1507       O  0.66871377  0.31679430  0.52953869    -1.08300
O1508       O  0.63773960  0.27286846  0.47176360    -0.64900
Ni1509     Ni  0.63354063  0.30802304  0.49863220     1.26300
O1510       O  0.68537311  0.38110574  0.53110469    -0.65100
O1511       O  0.60201927  0.27512473  0.52818158    -0.77400
C1512       C  0.59510765  0.32990240  0.46220606     0.86000
O1513       O  0.59909391  0.30399240  0.46737403    -0.64600
Ni1514     Ni  0.68032540  0.28252508  0.54082237     1.27400
Ni1515     Ni  0.70072857  0.35294327  0.50453720     1.26100
H1516       H  0.67350060  0.32982082  0.45193974     0.40500
O1517       O  0.68906720  0.26874192  0.02514349    -0.79400
O1518       O  0.69693306  0.40078965  0.96530776    -0.64100
O1519       O  0.68495872  0.32932962  0.02422481    -1.10700
C1520       C  0.59853143  0.26965572  0.94574258     1.07500
O1521       O  0.64320833  0.38379023  0.96911115    -0.77300
O1522       O  0.59440974  0.32692506  0.98702765    -0.64900
Ni1523     Ni  0.71867281  0.31544420  0.02994057     1.34900
C1524       C  0.59925046  0.32454662  0.01884403     0.86200
O1525       O  0.72706071  0.39512979  0.02425016    -0.77800
O1526       O  0.74999763  0.36078363  0.03739232    -0.88100
C1527       C  0.67134483  0.40523522  0.96003452     0.85800
O1528       O  0.73235567  0.31722438  0.98199198    -0.66300
O1529       O  0.60597616  0.29663846  0.92995222    -0.85600
C1530       C  0.74060583  0.34230448  0.96298062     0.86600
C1531       C  0.75009051  0.38939304  0.03706089     1.08200
H1532       H  0.67004737  0.32609855  0.94783786     0.40000
O1533       O  0.65966330  0.33226449  0.96726902    -1.08300
O1534       O  0.62122197  0.31581856  0.02826822    -0.64900
Ni1535     Ni  0.64752640  0.29888662  0.00054415     1.26300
O1536       O  0.72726514  0.36208200  0.96624190    -0.65100
O1537       O  0.60989874  0.26835833  0.97545059    -0.77400
C1538       C  0.65995438  0.25467602  0.03817469     0.86000
O1539       O  0.63927106  0.26659951  0.03463266    -0.64600
Ni1540     Ni  0.62532398  0.34039988  0.94920254     1.27400
Ni1541     Ni  0.69301910  0.36529895  0.99487798     1.26100
H1542       H  0.67857550  0.33429113  0.04706790     0.40500
N1543       N  0.99757139  0.06945448  0.19528931    -0.35100
N1544       N  0.54502944  0.09187901  0.25070572    -0.55700
N1545       N  0.99289805  0.07291490  0.30342467    -0.35100
N1546       N  0.94561233  0.04921126  0.24793260    -0.55700
C1547       C  0.52536776  0.07368170  0.17725531     0.28500
C1548       C  0.97154772  0.05012671  0.17576557     0.28500
C1549       C  0.51907128  0.07774235  0.32311513     0.28500
C1550       C  0.96535397  0.05392315  0.32160285     0.28500
C1551       C  0.56417068  0.10647690  0.22278726     0.37100
C1552       C  0.56156212  0.10834201  0.27914076     0.37100
C1553       C  0.92809684  0.04627258  0.21906264     0.37100
C1554       C  0.92573463  0.04783532  0.27545701     0.37100
C1555       C  0.51698472  0.05781405  0.14518060    -0.20400
C1556       C  0.98299504  0.04308983  0.14417576    -0.20400
C1557       C  0.50805832  0.06264877  0.35486188    -0.20400
C1558       C  0.97409074  0.04766581  0.35394136    -0.20400
C1559       C  0.59267738  0.13292212  0.23345573    -0.21500
C1560       C  0.59104705  0.13406239  0.26928189    -0.21500
C1561       C  0.89712164  0.04386019  0.22825288    -0.21500
C1562       C  0.89562480  0.04484453  0.26405895    -0.21500
C1563       C  0.55780523  0.09343546  0.18849194    -0.16800
C1564       C  0.93799421  0.04040504  0.18533025    -0.16800
C1565       C  0.93273937  0.04367617  0.31006980    -0.16800
C1566       C  0.55231244  0.09712046  0.31345333    -0.16800
H1567       H  0.53354226  0.05774886  0.12425603     0.16100
H1568       H  0.96846907  0.02981481  0.12218456     0.16100
H1569       H  0.52284879  0.06311218  0.37671932     0.16100
H1570       H  0.95773319  0.03451485  0.37504246     0.16100
H1571       H  0.61312448  0.14872027  0.21720546     0.14400
H1572       H  0.61001541  0.15084006  0.28618826     0.14400
H1573       H  0.87698416  0.54002399  0.21037919     0.14400
H1574       H  0.87413411  0.54219684  0.27923336     0.14400
H1575       H  0.99649092  0.08173143  0.21824548     0.27600
H1576       H  0.99374544  0.08445008  0.28011789     0.27600
N1577       N  0.93410144  0.43762858  0.30272563    -0.35100
N1578       N  0.96557180  0.41260278  0.25034768    -0.55700
N1579       N  0.93987309  0.43646608  0.19547433    -0.35100
N1580       N  0.91010767  0.46316155  0.24766117    -0.55700
C1581       C  0.95385063  0.42997345  0.32278410     0.28500
C1582       C  0.92518215  0.45862258  0.32113633     0.28500
C1583       C  0.96213468  0.42931097  0.17724687     0.28500
C1584       C  0.93155573  0.45586440  0.17566500     0.28500
C1585       C  0.96553433  0.39545235  0.27850333     0.37100
C1586       C  0.96967548  0.39573599  0.22252423     0.37100
C1587       C  0.89220357  0.46616205  0.27505171     0.37100
C1588       C  0.89411343  0.46418198  0.21901899     0.37100
C1589       C  0.95651879  0.44523406  0.35511254    -0.20400
C1590       C  0.93844867  0.46347787  0.35403329    -0.20400
C1591       C  0.96727778  0.44343585  0.14475511    -0.20400
C1592       C  0.94776117  0.46013018  0.14369376    -0.20400
C1593       C  0.96907716  0.36722973  0.26857876    -0.21500
C1594       C  0.97169607  0.36740784  0.23288288    -0.21500
C1595       C  0.86428697  0.46851092  0.26390055    -0.21500
C1596       C  0.86548966  0.46722834  0.22816475    -0.21500
C1597       C  0.96732107  0.40777339  0.31275782    -0.16800
C1598       C  0.90331071  0.47106024  0.30941109    -0.16800
C1599       C  0.90786706  0.46744819  0.18528301    -0.16800
C1600       C  0.97515095  0.40782199  0.18851370    -0.16800
H1601       H  0.96898520  0.44249772  0.37755121     0.16100
H1602       H  0.93440713  0.47747366  0.37547508     0.16100
H1603       H  0.98223889  0.44073338  0.12349587     0.16100
H1604       H  0.94473399  0.47261283  0.12140128     0.16100
H1605       H  0.97104158  0.34925695  0.28538935     0.14400
H1606       H  0.97589842  0.34951816  0.21653540     0.14400
H1607       H  0.84586729  0.47224625  0.27979094     0.14400
H1608       H  0.84823914  0.46990469  0.21090167     0.14400
H1609       H  0.92441539  0.42627026  0.27914759     0.27600
H1610       H  0.92806243  0.42558071  0.21847636     0.27600
C1611       C  0.86343708  0.02246836  0.37766095     0.03800
C1612       C  0.84996895  0.48793770  0.37682834     0.03700
C1613       C  0.86435641  0.47191599  0.35539624    -0.16800
C1614       C  0.89119200  0.48973762  0.33369825     0.03800
C1615       C  0.90463290  0.02422265  0.33380661     0.03700
C1616       C  0.89055492  0.04044841  0.35575468    -0.16800
H1617       H  0.90086694  0.06713758  0.35591232     0.05800
H1618       H  0.85382365  0.44518965  0.35464889     0.05800
N1619       N  0.56759471  0.49710871  0.30481559    -0.35100
N1620       N  0.59178959  0.04633702  0.25182593    -0.55700
N1621       N  0.57653969  0.49714245  0.19719944    -0.35100
N1622       N  0.55134527  0.44742350  0.25068633    -0.55700
C1623       C  0.57022198  0.02338746  0.32376915     0.28500
C1624       C  0.54825435  0.47018797  0.32317091     0.28500
C1625       C  0.58133710  0.02380329  0.17863348     0.28500
C1626       C  0.55842340  0.47020010  0.17776678     0.28500
C1627       C  0.60483115  0.06425658  0.28075068     0.37100
C1628       C  0.60937274  0.06442653  0.22478534     0.37100
C1629       C  0.54743095  0.42867815  0.27882525     0.37100
C1630       C  0.55127618  0.42883658  0.22247795     0.37100
C1631       C  0.55351021  0.01354722  0.35525970    -0.20400
C1632       C  0.53957492  0.48025134  0.35473874    -0.20400
C1633       C  0.56759396  0.01396973  0.14614369    -0.20400
C1634       C  0.55302130  0.48007756  0.14563355    -0.20400
C1635       C  0.63142496  0.09354799  0.27214906    -0.21500
C1636       C  0.63425282  0.09367493  0.23647491    -0.21500
C1637       C  0.54570113  0.39817104  0.26848977    -0.21500
C1638       C  0.54809312  0.39826228  0.23270741    -0.21500
C1639       C  0.58985788  0.05636312  0.31392992    -0.16800
C1640       C  0.54011246  0.43710514  0.31266043    -0.16800
C1641       C  0.54800453  0.43716242  0.18813321    -0.16800
C1642       C  0.59956540  0.05676309  0.19012206    -0.16800
H1643       H  0.55242337  0.02921604  0.37665008     0.16100
H1644       H  0.52590517  0.46477765  0.37602254     0.16100
H1645       H  0.56858835  0.02962280  0.12486981     0.16100
H1646       H  0.54056518  0.46443492  0.12380562     0.16100
H1647       H  0.64608422  0.11347380  0.28958602     0.14400
H1648       H  0.65144186  0.11366683  0.22088833     0.14400
H1649       H  0.04117683  0.37737350  0.28481584     0.14400
H1650       H  0.54572410  0.37756294  0.21604952     0.14400
H1651       H  0.58113091  0.49721860  0.28244216     0.27600
H1652       H  0.58729815  0.49716985  0.22077216     0.27600
C1653       C  0.87228458  0.01697767  0.11658579     0.03800
C1654       C  0.85913561  0.48179544  0.11535205     0.03700
C1655       C  0.87244452  0.46649605  0.13724567    -0.16800
C1656       C  0.89786767  0.48508407  0.15973907     0.03800
C1657       C  0.91172833  0.02019065  0.16043599     0.03700
C1658       C  0.89872329  0.03567320  0.13834494    -0.16800
H1659       H  0.90861812  0.06234676  0.13876389     0.05800
H1660       H  0.86207376  0.43979996  0.13780926     0.05800
C1661       C  0.63462863  0.12197433  0.38094767     0.03800
C1662       C  0.61624107  0.14103496  0.38267013     0.03700
C1663       C  0.58831744  0.13139719  0.36158700    -0.16800
C1664       C  0.57887119  0.10375872  0.33902152     0.03800
C1665       C  0.59636287  0.08398743  0.33923053     0.03700
C1666       C  0.62375209  0.09324654  0.36023813    -0.16800
H1667       H  0.63810166  0.07902558  0.35856585     0.05800
H1668       H  0.57432566  0.14593986  0.36197391     0.05800
C1669       C  0.64532623  0.12209048  0.12305202     0.03800
C1670       C  0.62360776  0.13743183  0.11968377     0.03700
C1671       C  0.59428278  0.12608773  0.13998926    -0.16800
C1672       C  0.58638933  0.10073301  0.16389968     0.03800
C1673       C  0.60711635  0.08445227  0.16590229     0.03700
C1674       C  0.63622838  0.09543091  0.14583261    -0.16800
H1675       H  0.65248475  0.08355446  0.14886145     0.05800
H1676       H  0.57777554  0.13781791  0.13800790     0.05800
C1677       C  0.51669888  0.36906698  0.37886993     0.03800
C1678       C  0.98223276  0.35750889  0.38077390     0.03700
C1679       C  0.96674285  0.37195148  0.36062263    -0.16800
C1680       C  0.98513102  0.39752214  0.33810063     0.03800
C1681       C  0.51992042  0.40986159  0.33656728     0.03700
C1682       C  0.53537897  0.39543936  0.35705771    -0.16800
H1683       H  0.56195111  0.40464104  0.35588303     0.05800
H1684       H  0.94010560  0.36227423  0.36133414     0.05800
C1685       C  0.99239418  0.35601218  0.11956253     0.03800
C1686       C  0.52724788  0.36960106  0.11876005     0.03700
C1687       C  0.54512922  0.39656593  0.14084075    -0.16800
C1688       C  0.52877846  0.40983904  0.16361256     0.03800
C1689       C  0.99396719  0.39634884  0.16367481     0.03700
C1690       C  0.97628290  0.36994214  0.14148142    -0.16800
H1691       H  0.94957886  0.35914357  0.14248360     0.05800
H1692       H  0.57180228  0.40718940  0.14040807     0.05800
C1693       C  0.65192455  0.19612335  0.04301080     0.25100
C1694       C  0.64996931  0.22416542  0.05784390    -0.23000
C1695       C  0.63838630  0.22323031  0.09219452     0.20000
C1696       C  0.62994051  0.19510300  0.11198999     0.25000
C1697       C  0.63145826  0.16663741  0.09733434    -0.23000
C1698       C  0.64153282  0.16712741  0.06215584     0.19900
F1699       F  0.64160149  0.13973066  0.04639815    -0.12900
F1700       F  0.66342250  0.19669911  0.00988854    -0.15300
F1701       F  0.62148234  0.19620776  0.14602223    -0.15300
F1702       F  0.63671895  0.25024977  0.10715028    -0.12900
C1703       C  0.55689336  0.34591695  0.03398763     0.25100
C1704       C  0.57920357  0.33362275  0.04508304    -0.23000
C1705       C  0.58388880  0.33302362  0.08114827     0.20000
C1706       C  0.56704550  0.34466060  0.10519688     0.25000
C1707       C  0.54517684  0.35703208  0.09375429    -0.23000
C1708       C  0.54047380  0.35770679  0.05799770     0.19900
F1709       F  0.52066981  0.37091833  0.04614837    -0.12900
F1710       F  0.55140472  0.34756822  0.99971874    -0.15300
F1711       F  0.57202813  0.34378273  0.13971733    -0.15300
F1712       F  0.60511929  0.32170414  0.09326377    -0.12900
C1713       C  0.80049839  0.46121260  0.09556733     0.25100
C1714       C  0.83157190  0.46065185  0.09272803    -0.23000
C1715       C  0.83622755  0.43877578  0.06880849     0.20000
C1716       C  0.81004347  0.41689335  0.04911924     0.25000
C1717       C  0.77865543  0.41654125  0.05291043    -0.23000
C1718       C  0.77434865  0.43961378  0.07538349     0.19900
F1719       F  0.74429006  0.43967090  0.07962711    -0.12900
F1720       F  0.79493606  0.48139501  0.11912969    -0.15300
F1721       F  0.81523052  0.39556328  0.02674644    -0.15300
F1722       F  0.86614055  0.43827751  0.06497166    -0.12900
C1723       C  0.64013258  0.22993399  0.41363562     0.25100
C1724       C  0.64862304  0.22909763  0.44837893    -0.23000
C1725       C  0.64546398  0.19896166  0.46164426     0.20000
C1726       C  0.63346947  0.17022710  0.44092040     0.25000
C1727       C  0.62622652  0.17120286  0.40567668    -0.23000
C1728       C  0.62976009  0.20149347  0.39229135     0.19900
F1729       F  0.62373073  0.20373638  0.35832459    -0.12900
F1730       F  0.64216726  0.25840529  0.40025179    -0.15300
F1731       F  0.62822419  0.14122410  0.45564548    -0.15300
F1732       F  0.65222235  0.19686794  0.49543032    -0.12900
C1733       C  0.55040373  0.34722672  0.45796575     0.25100
C1734       C  0.56750650  0.33006045  0.44302091    -0.23000
C1735       C  0.56560217  0.32333352  0.40705901     0.20000
C1736       C  0.54866702  0.33567689  0.38603417     0.25000
C1737       C  0.53340966  0.35465714  0.40086882    -0.23000
C1738       C  0.53355734  0.35949488  0.43706483     0.19900
F1739       F  0.51901214  0.37779567  0.45193651    -0.12900
F1740       F  0.55233190  0.35440731  0.49260123    -0.15300
F1741       F  0.54805727  0.33010686  0.35113177    -0.15300
F1742       F  0.58270600  0.30761476  0.39196714    -0.12900
C1743       C  0.79194668  0.42528455  0.43972309     0.25100
C1744       C  0.76126571  0.42397992  0.43057721    -0.23000
C1745       C  0.76038428  0.44474724  0.40408803     0.20000
C1746       C  0.78938444  0.46612046  0.38729929     0.25000
C1747       C  0.81976457  0.46727899  0.39660037    -0.23000
C1748       C  0.82086678  0.44665890  0.42276738     0.19900
F1749       F  0.85040032  0.94656730  0.43218323    -0.12900
F1750       F  0.79397924  0.40513634  0.46426189    -0.15300
F1751       F  0.78771646  0.48492771  0.36106172    -0.15300
F1752       F  0.73149964  0.44444939  0.39422322    -0.12900
C1753       C  0.55404823  0.17872842  0.92280949     0.25100
C1754       C  0.53188950  0.17872825  0.89792042    -0.23000
C1755       C  0.53164232  0.20859045  0.88861357     0.20000
C1756       C  0.55317472  0.23818962  0.90418322     0.25000
C1757       C  0.57550325  0.23838205  0.92925398    -0.23000
C1758       C  0.57566133  0.20825112  0.93841220     0.19900
F1759       F  0.59743325  0.20735796  0.96164098    -0.12900
F1760       F  0.55499041  0.15008468  0.93165315    -0.15300
F1761       F  0.55205999  0.26657816  0.89468285    -0.15300
F1762       F  0.01134132  0.20918678  0.86346525    -0.12900
C1763       C  0.64373893  0.46868376  0.93635012     0.25100
C1764       C  0.65027379  0.47040098  0.90043335    -0.23000
C1765       C  0.66980747  0.45571326  0.88574554     0.20000
C1766       C  0.68103967  0.43772413  0.90657197     0.25000
C1767       C  0.67231551  0.43392805  0.94206977    -0.23000
C1768       C  0.65466206  0.45053451  0.95702659     0.19900
F1769       F  0.64558503  0.44674413  0.99119450    -0.12900
F1770       F  0.62508417  0.98284622  0.94988378    -0.15300
F1771       F  0.69738987  0.42123647  0.89147504    -0.15300
F1772       F  0.67671218  0.45763307  0.85105876    -0.12900
C1773       C  0.79982371  0.38069246  0.56295601     0.25100
C1774       C  0.77321235  0.34946741  0.56662857    -0.23000
C1775       C  0.77543415  0.32747424  0.59067183     0.20000
C1776       C  0.80383034  0.33629773  0.61023831     0.25000
C1777       C  0.83097180  0.36695251  0.60549185    -0.23000
C1778       C  0.82845988  0.38927273  0.58207625     0.19900
F1779       F  0.85416714  0.41913515  0.57703871    -0.12900
F1780       F  0.79852679  0.40262058  0.54016831    -0.15300
F1781       F  0.80458774  0.31508865  0.63428137    -0.15300
F1782       F  0.74962316  0.29776325  0.59608084    -0.12900
C1783       C  0.77597099  0.32873360  0.91895819     0.25100
C1784       C  0.76962142  0.35188091  0.93931850    -0.23000
C1785       C  0.79295732  0.38512601  0.93935522     0.20000
C1786       C  0.82269539  0.39473584  0.92095205     0.25000
C1787       C  0.82940490  0.37165864  0.90082311    -0.23000
C1788       C  0.80507076  0.33880078  0.89879802     0.19900
F1789       F  0.80924253  0.31653629  0.87703286    -0.12900
F1790       F  0.75384462  0.29659350  0.91813771    -0.15300
F1791       F  0.84540397  0.42660031  0.92365550    -0.15300
F1792       F  0.78779045  0.40825659  0.95880700    -0.12900
C1793       C  0.63994661  0.45869776  0.55989531     0.25100
C1794       C  0.64539466  0.45811823  0.59540226    -0.23000
C1795       C  0.66225299  0.44024958  0.60686432     0.20000
C1796       C  0.67345216  0.42299957  0.58285768     0.25000
C1797       C  0.66790365  0.42341503  0.54695741    -0.23000
C1798       C  0.65123414  0.44190520  0.53590642     0.19900
F1799       F  0.64467256  0.44304712  0.50186649    -0.12900
F1800       F  0.62269971  0.47490146  0.54849313    -0.15300
F1801       F  0.68948155  0.40582052  0.59482765    -0.15300
F1802       F  0.66796976  0.43965961  0.64124657    -0.12900
C1803       C  0.57382546  0.19311911  0.55042457     0.25100
C1804       C  0.57869251  0.22528375  0.56000715    -0.23000
C1805       C  0.56150533  0.23031438  0.58887598     0.20000
C1806       C  0.54046931  0.20344395  0.60865213     0.25000
C1807       C  0.53632879  0.17137656  0.59948022    -0.23000
C1808       C  0.55298004  0.16638029  0.57015804     0.19900
F1809       F  0.54953626  0.13562595  0.56113602    -0.12900
F1810       F  0.59026984  0.18780600  0.52257954    -0.15300
F1811       F  0.52565618  0.20883732  0.63784512    -0.15300
F1812       F  0.56697572  0.26133717  0.59932066    -0.12900
C1813       C  0.94733137  0.15395003  0.54429689     0.25100
C1814       C  0.92926814  0.16996240  0.55952253    -0.23000
C1815       C  0.93030064  0.17582667  0.59561708     0.20000
C1816       C  0.94777155  0.16402706  0.61645833     0.25000
C1817       C  0.96439978  0.14652456  0.60122941    -0.23000
C1818       C  0.96475241  0.14228331  0.56499815     0.19900
F1819       F  0.98002545  0.12474278  0.54992578    -0.12900
F1820       F  0.94565152  0.14706881  0.50959972    -0.15300
F1821       F  0.94727414  0.16831228  0.65151848    -0.15300
F1822       F  0.91171166  0.18985687  0.61092142    -0.12900
C1823       C  0.84143649  0.05412108  0.46209639     0.25100
C1824       C  0.82938084  0.07654609  0.45074958    -0.23000
C1825       C  0.82713242  0.07965822  0.41459150     0.20000
C1826       C  0.83779939  0.06182957  0.39070561     0.25000
C1827       C  0.85067238  0.04044117  0.40242349    -0.23000
C1828       C  0.85221925  0.03671523  0.43826448     0.19900
F1829       F  0.86555832  0.01711131  0.45036799    -0.12900
F1830       F  0.84396464  0.04955985  0.49643841    -0.15300
F1831       F  0.83567754  0.06551389  0.35608799    -0.15300
F1832       F  0.81509726  0.10023796  0.40221680    -0.12900
C1833       C  0.73590178  0.05421869  0.59141697     0.25100
C1834       C  0.73518325  0.07433970  0.56417819    -0.23000
C1835       C  0.70444189  0.07211127  0.55378121     0.20000
C1836       C  0.67541336  0.05105007  0.57089026     0.25000
C1837       C  0.67658245  0.03175242  0.59838724    -0.23000
C1838       C  0.70692047  0.03340490  0.60844667     0.19900
F1839       F  0.70860156  0.01577324  0.63581230    -0.12900
F1840       F  0.76468337  0.05478262  0.60202710    -0.15300
F1841       F  0.64615369  0.04984254  0.56103673    -0.15300
F1842       F  0.70241996  0.09111047  0.52800082    -0.12900
C1843       C  0.92625511  0.30927777  0.45378385     0.25100
C1844       C  0.92105584  0.27694183  0.44463210    -0.23000
C1845       C  0.93755554  0.27126848  0.41552603     0.20000
C1846       C  0.95796360  0.29763095  0.39487180     0.25000
C1847       C  0.96186876  0.32976689  0.40318512    -0.23000
C1848       C  0.94634129  0.33551784  0.43302389     0.19900
F1849       F  0.95023958  0.36649652  0.44163568    -0.12900
F1850       F  0.91072020  0.31517210  0.48209720    -0.15300
F1851       F  0.97252933  0.29166081  0.36579468    -0.15300
F1852       F  0.93179654  0.24004026  0.40559277    -0.12900
C1853       C  0.72176399  0.17357762  0.41090608     0.25100
C1854       C  0.72632032  0.15183419  0.43344623    -0.23000
C1855       C  0.70126643  0.11971389  0.43712633     0.20000
C1856       C  0.67144145  0.11019128  0.42031093     0.25000
C1857       C  0.66647060  0.13224964  0.39861173    -0.23000
C1858       C  0.69231619  0.16360720  0.39307676     0.19900
F1859       F  0.68925793  0.18433467  0.36991210    -0.12900
F1860       F  0.74627280  0.20402174  0.40511281    -0.15300
F1861       F  0.64714909  0.07953657  0.42571332    -0.15300
F1862       F  0.70535849  0.09761561  0.45748668    -0.12900
C1863       C  0.86398869  0.29485353  0.61393104     0.25100
C1864       C  0.86925112  0.32588831  0.60105435    -0.23000
C1865       C  0.86433324  0.32823489  0.56544662     0.20000
C1866       C  0.85251644  0.30017978  0.54377819     0.25000
C1867       C  0.84746848  0.26926496  0.55644153    -0.23000
C1868       C  0.85386367  0.26696414  0.59164135     0.19900
F1869       F  0.85013044  0.23767967  0.60445358    -0.12900
F1870       F  0.86842085  0.29145742  0.64810127    -0.15300
F1871       F  0.84793525  0.30368212  0.50967601    -0.15300
F1872       F  0.87200009  0.35803370  0.55125613    -0.12900
C1873       C  0.70761470  0.04556598  0.89472371     0.25100
C1874       C  0.67542565  0.04210580  0.90177766    -0.23000
C1875       C  0.66925012  0.05818373  0.93093633     0.20000
C1876       C  0.69514193  0.07887987  0.95175757     0.25000
C1877       C  0.72756959  0.08364090  0.94382028    -0.23000
C1878       C  0.73355997  0.06604069  0.91586043     0.19900
F1879       F  0.76474963  0.07055454  0.90753465    -0.12900
F1880       F  0.71409484  0.03037550  0.86645678    -0.15300
F1881       F  0.68875075  0.09511878  0.97916091    -0.15300
F1882       F  0.63814027  0.05413353  0.93890417    -0.12900
C1883       C  0.72890710  0.17459496  0.07974008     0.25100
C1884       C  0.73515601  0.15038818  0.06117164    -0.23000
C1885       C  0.71278765  0.11706560  0.06476938     0.20000
C1886       C  0.68390025  0.10826116  0.08464289     0.25000
C1887       C  0.67718840  0.13233155  0.10300066    -0.23000
C1888       C  0.70083180  0.16552973  0.10152020     0.19900
F1889       F  0.69669191  0.18925982  0.12086111    -0.12900
F1890       F  0.75005387  0.20693282  0.07702007    -0.15300
F1891       F  0.66175756  0.07608934  0.08469450    -0.15300
F1892       F  0.71782535  0.09288093  0.04725406    -0.12900
C1893       C  0.93962508  0.16281462  0.89393875     0.25100
C1894       C  0.95896052  0.14742958  0.90514957    -0.23000
C1895       C  0.96190946  0.14430056  0.94085461     0.20000
C1896       C  0.94561728  0.15600299  0.96510654     0.25000
C1897       C  0.92542414  0.17088776  0.95421129    -0.23000
C1898       C  0.92307946  0.17457840  0.91820710     0.19900
F1899       F  0.90465323  0.18932822  0.90636608    -0.12900
F1900       F  0.93699853  0.16664770  0.85945723    -0.15300
F1901       F  0.94898884  0.15164415  0.99931722    -0.15300
F1902       F  0.97991929  0.12891158  0.95230378    -0.12900
C1903       C  0.83054964  0.07047828  0.09353138     0.25100
C1904       C  0.83252639  0.06967943  0.05714268    -0.23000
C1905       C  0.84467224  0.04904075  0.04009768     0.20000
C1906       C  0.85731001  0.03138386  0.05933917     0.25000
C1907       C  0.85765437  0.03415906  0.09582497    -0.23000
C1908       C  0.84329500  0.05298677  0.11282044     0.19900
F1909       F  0.84245594  0.05506078  0.14809521    -0.12900
F1910       F  0.81926202  0.09073627  0.11028445    -0.15300
F1911       F  0.87084026  0.01311768  0.04237457    -0.15300
F1912       F  0.84652594  0.04803233  0.00481214    -0.12900
C1913       C  0.97188906  0.29546847  0.10978734     0.25100
C1914       C  0.97177742  0.32536103  0.10046310    -0.23000
C1915       C  0.94961327  0.32536126  0.07551809     0.20000
C1916       C  0.92800941  0.29580779  0.05978904     0.25000
C1917       C  0.92783148  0.26558232  0.06925393    -0.23000
C1918       C  0.95014757  0.26584199  0.09440498     0.19900
F1919       F  0.95103991  0.23744596  0.10422999    -0.12900
F1920       F  0.99224111  0.29487192  0.13487782    -0.15300
F1921       F  0.90660119  0.29678159  0.03614445    -0.15300
F1922       F  0.94867862  0.35402473  0.06672042    -0.12900
C1923       C  0.86543800  0.33567977  0.94097657     0.25100
C1924       C  0.87298933  0.33604167  0.90515555    -0.23000
C1925       C  0.87052381  0.30689247  0.88827631     0.20000
C1926       C  0.86042789  0.27787736  0.90671226     0.25000
C1927       C  0.85199634  0.27732494  0.94206814    -0.23000
C1928       C  0.85448619  0.30623831  0.95925169     0.19900
F1929       F  0.84710274  0.30604798  0.99374631    -0.12900
F1930       F  0.86878833  0.36373761  0.95815447    -0.15300
F1931       F  0.85810938  0.24998997  0.88986643    -0.15300
F1932       F  0.87680241  0.30626948  0.85357636    -0.12900
O1933       O  0.86150930  0.61974337  0.03021784    -0.79400
O1934       O  0.86309781  0.73555493  0.96445967    -0.64100
O1935       O  0.84376535  0.67049232  0.03180679    -1.10700
C1936       C  0.75440444  0.61163349  0.96137931     1.07500
O1937       O  0.81271202  0.73232811  0.97309447    -0.77300
O1938       O  0.77041645  0.68395873  0.01666292    -0.64900
Ni1939     Ni  0.87858617  0.66325578  0.05000591     1.34900
C1940       C  0.76297108  0.65939906  0.03625855     0.86200
O1941       O  0.89268914  0.73493040  0.02357858    -0.77800
O1942       O  0.89716907  0.70710386  0.06914405    -0.88100
C1943       C  0.84206996  0.74694762  0.96083887     0.85800
O1944       O  0.90958488  0.67734321  0.01229106    -0.66300
O1945       O  0.75330026  0.63971641  0.96155134    -0.85600
C1946       C  0.90471119  0.67956519  0.98045949     0.86600
C1947       C  0.90436056  0.73397199  0.05321047     1.08200
H1948       H  0.82502099  0.66793049  0.95185225     0.40000
O1949       O  0.81838706  0.67271998  0.97463651    -1.08300
O1950       O  0.77631118  0.63961973  0.03262756    -0.64900
Ni1951     Ni  0.81099452  0.63707469  0.00397894     1.26300
O1952       O  0.88229515  0.68755187  0.97090777    -0.65100
O1953       O  0.77779519  0.60666865  0.97430522    -0.77400
C1954       C  0.83332872  0.59797692  0.03873606     0.86000
O1955       O  0.80759198  0.60201093  0.03340322    -0.64600
Ni1956     Ni  0.78391234  0.68542442  0.96869191     1.27400
Ni1957     Ni  0.85536462  0.70370294  0.99850624     1.26100
H1958       H  0.83310718  0.67639046  0.05116838     0.40500
O1959       O  0.77227084  0.69152031  0.46324617    -0.79400
O1960       O  0.89764240  0.69474494  0.53525132    -0.64100
O1961       O  0.83041433  0.68415334  0.47118598    -1.10700
C1962       C  0.76596662  0.59754127  0.54870133     1.07500
O1963       O  0.88046278  0.64127563  0.52848605    -0.77300
O1964       O  0.82410208  0.59266961  0.50905393    -0.64900
Ni1965     Ni  0.81934799  0.71904550  0.46083851     1.34900
C1966       C  0.82103302  0.59691784  0.47725674     0.86200
O1967       O  0.89682661  0.72513871  0.47508138    -0.77800
O1968       O  0.86516179  0.74863231  0.45527205    -0.88100
C1969       C  0.90154929  0.66872517  0.53966466     0.85800
O1970       O  0.81950451  0.73540886  0.50748115    -0.66300
O1971       O  0.79263048  0.60425499  0.56469460    -0.85600
C1972       C  0.84126305  0.74125844  0.53041965     0.86600
C1973       C  0.89291829  0.74779227  0.45916605     1.08200
H1974       H  0.82302452  0.66866244  0.54831321     0.40000
O1975       O  0.82960283  0.65840411  0.52904940    -1.08300
O1976       O  0.81322412  0.61944591  0.46761597    -0.64900
Ni1977     Ni  0.79765148  0.64734894  0.49446505     1.26300
O1978       O  0.85965514  0.72620524  0.53087902    -0.65100
O1979       O  0.76517950  0.61019187  0.51945906    -0.77400
C1980       C  0.75683172  0.66164874  0.45262275     0.86000
O1981       O  0.76685969  0.64001046  0.45915197    -0.64600
Ni1982     Ni  0.83669571  0.62340906  0.54701798     1.27400
Ni1983     Ni  0.86438885  0.69173525  0.50317536     1.26100
H1984       H  0.83646181  0.67688399  0.44933874     0.40500
N1985       N  0.93054395  0.50283440  0.69774752    -0.35100
N1986       N  0.91146123  0.95447236  0.75146861    -0.55700
N1987       N  0.92931664  0.50585763  0.80563249    -0.35100
N1988       N  0.94943451  0.55397248  0.75111032    -0.55700
C1989       C  0.92743524  0.97525910  0.67839103     0.28500
C1990       C  0.94861190  0.52947857  0.67837025     0.28500
C1991       C  0.92577507  0.97958595  0.82359725     0.28500
C1992       C  0.94739350  0.53342912  0.82413011     0.28500
C1993       C  0.89646278  0.93563509  0.72371318     0.37100
C1994       C  0.89544129  0.93745417  0.77972132     0.37100
C1995       C  0.95111764  0.57168813  0.72273412     0.37100
C1996       C  0.95044218  0.57311205  0.77917324     0.37100
C1997       C  0.94269734  0.98458484  0.64614459    -0.20400
C1998       C  0.95565815  0.51888719  0.64626826    -0.20400
C1999       C  0.94107226  0.99063060  0.85519062    -0.20400
C2000       C  0.95461164  0.52470256  0.85603648    -0.20400
C2001       C  0.87027723  0.90684598  0.73426537    -0.21500
C2002       C  0.86965355  0.90799431  0.76999939    -0.21500
C2003       C  0.95241534  0.60209661  0.73281614    -0.21500
C2004       C  0.95196386  0.60298394  0.76864808    -0.21500
C2005       C  0.90918627  0.94246454  0.68960561    -0.16800
C2006       C  0.95721738  0.56275519  0.68864511    -0.16800
C2007       C  0.95581653  0.56594453  0.81330625    -0.16800
C2008       C  0.90724943  0.94636598  0.81357555    -0.16800
H2009       H  0.94346079  0.96857078  0.62495330     0.16100
H2010       H  0.96813860  0.53402123  0.62430618     0.16100
H2011       H  0.94159031  0.97581924  0.87663175     0.16100
H2012       H  0.96722480  0.54103477  0.87735202     0.16100
H2013       H  0.85435835  0.88652036  0.71798454     0.14400
H2014       H  0.85321627  0.88871973  0.78685494     0.14400
H2015       H  0.45533356  0.62222528  0.71616595     0.14400
H2016       H  0.95448627  0.62390519  0.78501303     0.14400
H2017       H  0.91843768  0.50306372  0.72109393     0.27600
H2018       H  0.91709489  0.50480378  0.78278187     0.27600
N2019       N  0.56355914  0.56216840  0.69646709    -0.35100
N2020       N  0.53524838  0.58912520  0.75007187    -0.55700
N2021       N  0.56366382  0.56671466  0.80386236    -0.35100
N2022       N  0.59042145  0.53814445  0.75022586    -0.55700
C2023       C  0.54280462  0.56923627  0.67742363     0.28500
C2024       C  0.57196467  0.54109266  0.67757502     0.28500
C2025       C  0.54234060  0.57455361  0.82307732     0.28500
C2026       C  0.57266793  0.54749662  0.82327032     0.28500
C2027       C  0.53311029  0.60502030  0.72179405     0.37100
C2028       C  0.53225319  0.60667217  0.77781446     0.37100
C2029       C  0.60730974  0.53500547  0.72192691     0.37100
C2030       C  0.60789686  0.53802036  0.77802571     0.37100
C2031       C  0.53881272  0.55341037  0.64527475    -0.20400
C2032       C  0.55725831  0.53552714  0.64538853    -0.20400
C2033       C  0.53861294  0.56113708  0.85580845    -0.20400
C2034       C  0.55783165  0.54401346  0.85593558    -0.20400
C2035       C  0.52929382  0.63315134  0.73152491    -0.21500
C2036       C  0.52870887  0.63417502  0.76723762    -0.21500
C2037       C  0.63602670  0.53348248  0.73165134    -0.21500
C2038       C  0.63640552  0.53540406  0.76739652    -0.21500
C2039       C  0.52989714  0.59172771  0.68786210    -0.16800
C2040       C  0.59472026  0.52934840  0.68810521    -0.16800
C2041       C  0.59576613  0.53536296  0.81249037    -0.16800
C2042       C  0.52858723  0.59563262  0.81214494    -0.16800
H2043       H  0.52533347  0.55566922  0.62348093     0.16100
H2044       H  0.56069382  0.52143706  0.62368364     0.16100
H2045       H  0.52471808  0.56448220  0.87775115     0.16100
H2046       H  0.56152621  0.53169109  0.87800054     0.16100
H2047       H  0.52577228  0.65023622  0.71468608     0.14400
H2048       H  0.52474746  0.65224167  0.78353035     0.14400
H2049       H  0.65401104  0.52993877  0.71484172     0.14400
H2050       H  0.65470289  0.53353929  0.78374186     0.14400
H2051       H  0.57435513  0.57411342  0.71942853     0.27600
H2052       H  0.57435032  0.57690267  0.78019446     0.27600
N2053       N  0.50772705  0.93266065  0.80533278    -0.35100
N2054       N  0.95731584  0.90787913  0.75225713    -0.55700
N2055       N  0.50631992  0.92631316  0.69723456    -0.35100
N2056       N  0.55661810  0.95206542  0.75034536    -0.55700
C2057       C  0.98070457  0.92882698  0.82455104     0.28500
C2058       C  0.53453760  0.95286980  0.82335164     0.28500
C2059       C  0.97910205  0.92055670  0.67883564     0.28500
C2060       C  0.53288645  0.94539659  0.67781277     0.28500
C2061       C  0.93976800  0.89427966  0.78135035     0.37100
C2062       C  0.93898995  0.89080923  0.72501169     0.37100
C2063       C  0.57591384  0.95616126  0.77798504     0.37100
C2064       C  0.57502922  0.95302462  0.72173835     0.37100
C2065       C  0.99040901  0.94572974  0.85595922    -0.20400
C2066       C  0.52442608  0.96081613  0.85524327    -0.20400
C2067       C  0.98850404  0.93508414  0.64661741    -0.20400
C2068       C  0.52250540  0.95070876  0.64593343    -0.20400
C2069       C  0.91047276  0.86780595  0.77260814    -0.21500
C2070       C  0.90997631  0.86563096  0.73680363    -0.21500
C2071       C  0.60657266  0.95890405  0.76696158    -0.21500
C2072       C  0.60601926  0.95692675  0.73121773    -0.21500
C2073       C  0.94783600  0.90868317  0.81494459    -0.16800
C2074       C  0.56767007  0.96270717  0.81209898    -0.16800
C2075       C  0.56607769  0.95648176  0.68778572    -0.16800
C2076       C  0.94633456  0.90107135  0.69018498    -0.16800
H2077       H  0.97472445  0.94630918  0.87755694     0.16100
H2078       H  0.53989139  0.97508267  0.87624040     0.16100
H2079       H  0.97262265  0.93391474  0.62553620     0.16100
H2080       H  0.53780103  0.96365651  0.62408871     0.16100
H2081       H  0.89079519  0.85278738  0.79013544     0.14400
H2082       H  0.88988947  0.84863488  0.72123605     0.14400
H2083       H  0.62737716  0.46348193  0.78370612     0.14400
H2084       H  0.62628541  0.45988649  0.71497524     0.14400
H2085       H  0.50778858  0.91964542  0.78258880     0.27600
H2086       H  0.50690955  0.91540770  0.72052890     0.26000
C2087       C  0.51546992  0.64317111  0.62142401     0.03800
C2088       C  0.98099924  0.63162891  0.62335655     0.03700
C2089       C  0.96208112  0.60479206  0.64453302    -0.16800
C2090       C  0.97733430  0.58983545  0.66448424     0.03800
C2091       C  0.51209936  0.60211934  0.66285624     0.03700
C2092       C  0.53069654  0.62811316  0.64091935    -0.16800
H2093       H  0.55732996  0.63769723  0.64030126     0.05800
H2094       H  0.93551730  0.59570614  0.64567302     0.05800
C2095       C  0.64617243  0.51115303  0.61938356     0.03800
C2096       C  0.63380327  0.97696206  0.61933374     0.03700
C2097       C  0.60689357  0.95922188  0.64131581    -0.16800
C2098       C  0.59299984  0.97569923  0.66296206     0.03800
C2099       C  0.60592289  0.51034152  0.66319142     0.03700
C2100       C  0.63220639  0.52771186  0.64064950    -0.16800
H2101       H  0.64282114  0.55443721  0.64081687     0.05800
H2102       H  0.59682850  0.93255246  0.64171696     0.05800
C2103       C  0.88251884  0.86626804  0.88390121     0.03800
C2104       C  0.86161443  0.88246877  0.88118073     0.03700
C2105       C  0.87143268  0.90963160  0.85919508    -0.16800
C2106       C  0.90025313  0.91976445  0.83880230     0.03800
C2107       C  0.92031073  0.90273594  0.84042085     0.03700
C2108       C  0.91182814  0.87703463  0.86385352    -0.16800
H2109       H  0.92736636  0.86414498  0.86514592     0.05800
H2110       H  0.85563322  0.92206687  0.85645502     0.05800
C2111       C  0.86256196  0.87589752  0.62382514     0.03800
C2112       C  0.87995346  0.85583671  0.62320693     0.03700
C2113       C  0.90773201  0.86502577  0.64447748    -0.16800
C2114       C  0.91842472  0.89353430  0.66594358     0.03800
C2115       C  0.90163799  0.91400169  0.66511687     0.03700
C2116       C  0.87411199  0.90490881  0.64419073    -0.16800
H2117       H  0.86050453  0.91986397  0.64515940     0.05800
H2118       H  0.92105105  0.84984007  0.64451575     0.05800
C2119       C  0.63635736  0.98707950  0.87732294     0.03800
C2120       C  0.64754944  0.52159508  0.87990952     0.03700
C2121       C  0.63291606  0.53676495  0.85946937    -0.16800
C2122       C  0.60708323  0.51798650  0.83737349     0.03800
C2123       C  0.59502554  0.98337322  0.83560006     0.03700
C2124       C  0.60973349  0.96817826  0.85601087    -0.16800
H2125       H  0.60049007  0.94156137  0.85522009     0.05800
H2126       H  0.64238603  0.56341326  0.85990297     0.05800
C2127       C  0.97677093  0.63529892  0.88039686     0.03800
C2128       C  0.51154048  0.64882583  0.87959377     0.03700
C2129       C  0.52765108  0.63428829  0.85847387    -0.16800
C2130       C  0.50991744  0.60717762  0.83714378     0.03800
C2131       C  0.97511196  0.59398195  0.83696648     0.03700
C2132       C  0.95880585  0.60788847  0.85898565    -0.16800
H2133       H  0.93213340  0.59732909  0.85947720     0.05800
H2134       H  0.55435191  0.64509956  0.85741038     0.05800
O2135       O  0.61709024  0.85837420  0.47321122    -0.79400
O2136       O  0.73302769  0.86115115  0.53929039    -0.64100
O2137       O  0.66752108  0.84056813  0.47161713    -1.10700
C2138       C  0.60636309  0.75312858  0.54477737     1.07500
O2139       O  0.72702843  0.80943795  0.53638762    -0.77300
O2140       O  0.67830863  0.76471737  0.49418139    -0.64900
Ni2141     Ni  0.66015621  0.87509720  0.45275344     1.34900
C2142       C  0.65548438  0.75800188  0.47232433     0.86200
O2143       O  0.73226350  0.88902950  0.47819119    -0.77800
O2144       O  0.70359465  0.89320667  0.43311542    -0.88100
C2145       C  0.74272998  0.83940289  0.54663209     0.85800
O2146       O  0.67465648  0.90702172  0.48950909    -0.66300
O2147       O  0.63431381  0.75248747  0.54786417    -0.85600
C2148       C  0.67732093  0.90294832  0.52143370     0.86600
C2149       C  0.73070984  0.90047181  0.44844413     1.08200
H2150       H  0.66351988  0.82450256  0.55193342     0.40000
O2151       O  0.66870463  0.81659632  0.53001285    -1.08300
O2152       O  0.63693896  0.77289779  0.47229713    -0.64900
Ni2153     Ni  0.63348177  0.80828161  0.49937014     1.26300
O2154       O  0.68560180  0.88092010  0.53155440    -0.65100
O2155       O  0.60197132  0.77565684  0.52910158    -0.77400
C2156       C  0.59531140  0.83073168  0.46337219     0.86000
O2157       O  0.59899425  0.80465787  0.46847466    -0.64600
Ni2158     Ni  0.68000269  0.78196790  0.54060970     1.27400
Ni2159     Ni  0.70076438  0.85263825  0.50496411     1.26100
H2160       H  0.67333395  0.82955933  0.45248198     0.40500
O2161       O  0.68940346  0.76959316  0.02614171    -0.79400
O2162       O  0.69756320  0.90152544  0.96543882    -0.64100
O2163       O  0.68532747  0.83022069  0.02478205    -1.10700
C2164       C  0.59896156  0.77035303  0.94627360     1.07500
O2165       O  0.64386337  0.88453544  0.96911822    -0.77300
O2166       O  0.59497694  0.82782923  0.98715184    -0.64900
Ni2167     Ni  0.71899821  0.81633897  0.03078460     1.34900
C2168       C  0.59967588  0.82537529  0.01898793     0.86200
O2169       O  0.72740145  0.89602172  0.02467834    -0.77800
O2170       O  0.75026643  0.86168949  0.03813663    -0.88100
C2171       C  0.67198079  0.90590139  0.95990554     0.85800
O2172       O  0.73291794  0.81802534  0.98289290    -0.66300
O2173       O  0.60650142  0.79727663  0.93033461    -0.85600
C2174       C  0.74119017  0.84302691  0.96373396     0.86600
C2175       C  0.75037806  0.89029785  0.03762379     1.08200
H2176       H  0.67065299  0.82676520  0.94829684     0.40000
O2177       O  0.66022049  0.83298335  0.96764515    -1.08300
O2178       O  0.62160913  0.81666232  0.02854491    -0.64900
Ni2179     Ni  0.64798254  0.79970103  0.00105757     1.26300
O2180       O  0.72785148  0.86281650  0.96686040    -0.65100
O2181       O  0.61040345  0.76910734  0.97595308    -0.77400
C2182       C  0.66019485  0.75551447  0.03895801     0.86000
O2183       O  0.63959274  0.76751355  0.03529571    -0.64600
Ni2184     Ni  0.62593701  0.84109932  0.94937981     1.27400
Ni2185     Ni  0.69349860  0.86611368  0.99525769     1.26100
H2186       H  0.67887664  0.83525021  0.04756294     0.40500
N2187       N  0.99732262  0.56922975  0.19480526    -0.35100
N2188       N  0.54478723  0.59190709  0.25027131    -0.55700
N2189       N  0.99267524  0.57317418  0.30296351    -0.35100
N2190       N  0.94536142  0.54908656  0.24740361    -0.55700
C2191       C  0.52513478  0.57342084  0.17683747     0.28500
C2192       C  0.97132385  0.54986757  0.17526324     0.28500
C2193       C  0.51885149  0.57814810  0.32272424     0.28500
C2194       C  0.96512065  0.55433268  0.32121390     0.28500
C2195       C  0.56393708  0.60637232  0.22232113     0.37100
C2196       C  0.56135563  0.60847064  0.27864235     0.37100
C2197       C  0.92787174  0.54612581  0.21848600     0.37100
C2198       C  0.92552630  0.54794758  0.27490464     0.37100
C2199       C  0.51679422  0.55748992  0.14479001    -0.20400
C2200       C  0.98281154  0.54275947  0.14373479    -0.20400
C2201       C  0.50782814  0.56330632  0.35458808    -0.20400
C2202       C  0.97385448  0.54832454  0.35366758    -0.20400
C2203       C  0.59248574  0.63281748  0.23290292    -0.21500
C2204       C  0.59087200  0.63410427  0.26871060    -0.21500
C2205       C  0.89696082  0.54390628  0.22762425    -0.21500
C2206       C  0.89547303  0.54505088  0.26343419    -0.21500
C2207       C  0.55755194  0.59322605  0.18807880    -0.16800
C2208       C  0.93776055  0.54019358  0.18475099    -0.16800
C2209       C  0.93250482  0.54400145  0.30961600    -0.16800
C2210       C  0.55210420  0.59743831  0.31299933    -0.16800
H2211       H  0.53337449  0.55740984  0.12389924     0.16100
H2212       H  0.96831703  0.52944014  0.12174346     0.16100
H2213       H  0.52261522  0.56394434  0.37651668     0.16100
H2214       H  0.95749259  0.53534166  0.37483833     0.16100
H2215       H  0.61294839  0.64852325  0.21661210     0.14400
H2216       H  0.60986612  0.65092500  0.28556375     0.14400
H2217       H  0.87709877  0.03990019  0.21104287     0.14400
H2218       H  0.87423582  0.04176897  0.27988583     0.14400
H2219       H  0.99622416  0.58156840  0.21770921     0.27600
H2220       H  0.99351617  0.58451140  0.27952816     0.27600
N2221       N  0.93399569  0.93684500  0.30292885    -0.35100
N2222       N  0.96495397  0.91162593  0.25030512    -0.55700
N2223       N  0.93966623  0.93619800  0.19565882    -0.35100
N2224       N  0.91039658  0.96309024  0.24809483    -0.55700
C2225       C  0.95365476  0.92891396  0.32282797     0.28500
C2226       C  0.92537290  0.95797377  0.32148833     0.28500
C2227       C  0.96190268  0.92904894  0.17738951     0.28500
C2228       C  0.93159331  0.95588595  0.17602275     0.28500
C2229       C  0.96489242  0.89429994  0.27831260     0.37100
C2230       C  0.96903947  0.89492561  0.22233883     0.37100
C2231       C  0.89252090  0.96595607  0.27558272     0.37100
C2232       C  0.89434819  0.96422991  0.21953575     0.37100
C2233       C  0.95656293  0.94413895  0.35520645    -0.20400
C2234       C  0.93873290  0.96263892  0.35432478    -0.20400
C2235       C  0.96725785  0.94345545  0.14503237    -0.20400
C2236       C  0.94790158  0.96032473  0.14410284    -0.20400
C2237       C  0.96836333  0.86609084  0.26815103    -0.21500
C2238       C  0.97098700  0.86648636  0.23245041    -0.21500
C2239       C  0.86457086  0.96832395  0.26457280    -0.21500
C2240       C  0.86572032  0.96720048  0.22882628    -0.21500
C2241       C  0.96685017  0.90653158  0.31261349    -0.16800
C2242       C  0.90366916  0.97069359  0.30992693    -0.16800
C2243       C  0.90804088  0.96760138  0.18576465    -0.16800
C2244       C  0.97472501  0.90735110  0.18847343    -0.16800
H2245       H  0.96904301  0.94122546  0.37754321     0.16100
H2246       H  0.93491737  0.97668949  0.37584993     0.16100
H2247       H  0.98225367  0.94083291  0.12376496     0.16100
H2248       H  0.94505857  0.97305498  0.12192873     0.16100
H2249       H  0.97033124  0.84801586  0.28480507     0.14400
H2250       H  0.97520177  0.84869601  0.21594845     0.14400
H2251       H  0.84615046  0.97194732  0.28057381     0.14400
H2252       H  0.84842120  0.96990711  0.21165792     0.14400
H2253       H  0.92416484  0.92560689  0.27934873     0.27600
H2254       H  0.92772511  0.92516290  0.21855684     0.27600
C2255       C  0.86326586  0.52277882  0.37738931     0.03800
C2256       C  0.85039726  0.98761855  0.37743254     0.03700
C2257       C  0.86494224  0.97160210  0.35618338    -0.16800
C2258       C  0.89167137  0.98939548  0.33434745     0.03800
C2259       C  0.90435726  0.52458625  0.33336894     0.03700
C2260       C  0.89042722  0.54081304  0.35553893    -0.16800
H2261       H  0.90086815  0.56750915  0.35591707     0.05800
H2262       H  0.85453724  0.94488023  0.35559622     0.05800
N2263       N  0.56737226  0.99641693  0.30495326    -0.35100
N2264       N  0.59205506  0.54678311  0.25165700    -0.55700
N2265       N  0.57625380  0.99684847  0.19724209    -0.35100
N2266       N  0.55093113  0.94689811  0.25066984    -0.55700
C2267       C  0.57026170  0.52409114  0.32348246     0.28500
C2268       C  0.54809346  0.96944924  0.32331421     0.28500
C2269       C  0.58148212  0.52403867  0.17857422     0.28500
C2270       C  0.55816297  0.96994824  0.17774126     0.28500
C2271       C  0.60508024  0.56479290  0.28052681     0.37100
C2272       C  0.60965218  0.56475863  0.22457921     0.37100
C2273       C  0.54688908  0.92799288  0.27870647     0.37100
C2274       C  0.55080027  0.92839290  0.22237378     0.37100
C2275       C  0.55333326  0.51431330  0.35486494    -0.20400
C2276       C  0.53967253  0.97947339  0.35503584    -0.20400
C2277       C  0.56762545  0.51413370  0.14614470    -0.20400
C2278       C  0.55293196  0.97990723  0.14557352    -0.20400
C2279       C  0.63171393  0.59403077  0.27187116    -0.21500
C2280       C  0.63456014  0.59403179  0.23619219    -0.21500
C2281       C  0.54500960  0.89746888  0.26821682    -0.21500
C2282       C  0.54744537  0.89771216  0.23244731    -0.21500
C2283       C  0.58998056  0.55702132  0.31364249    -0.16800
C2284       C  0.53970920  0.93634567  0.31262895    -0.16800
C2285       C  0.54760535  0.93687232  0.18807408    -0.16800
C2286       C  0.59971828  0.55701119  0.18997204    -0.16800
H2287       H  0.55209290  0.53001560  0.37614581     0.16100
H2288       H  0.52607795  0.96395901  0.37632664     0.16100
H2289       H  0.56853623  0.52973544  0.12485622     0.16100
H2290       H  0.54053779  0.96431234  0.12369094     0.16100
H2291       H  0.64635780  0.61401004  0.28926049     0.14400
H2292       H  0.65175313  0.61397024  0.22054917     0.14400
H2293       H  0.04038602  0.87657895  0.28443753     0.14400
H2294       H  0.54499537  0.87704605  0.21569284     0.14400
H2295       H  0.58071605  0.99657762  0.28241552     0.27600
H2296       H  0.58688320  0.99679118  0.22086951     0.27600
C2297       C  0.87204704  0.51652516  0.11582675     0.03800
C2298       C  0.85937036  0.98225722  0.11599764     0.03700
C2299       C  0.87264137  0.96685022  0.13778897    -0.16800
C2300       C  0.89805889  0.98534815  0.16031306     0.03800
C2301       C  0.91150353  0.51991930  0.15980761     0.03700
C2302       C  0.89850762  0.53530458  0.13757206    -0.16800
H2303       H  0.90838023  0.56197566  0.13791503     0.05800
H2304       H  0.86225215  0.94014931  0.13823870     0.05800
C2305       C  0.63435994  0.62266426  0.38075919     0.03800
C2306       C  0.61593023  0.64170048  0.38218294     0.03700
C2307       C  0.58807640  0.63198396  0.36099383    -0.16800
C2308       C  0.57869859  0.60426860  0.33857064     0.03800
C2309       C  0.59636046  0.58467038  0.33884110     0.03700
C2310       C  0.62368294  0.59400710  0.35995575    -0.16800
H2311       H  0.63807918  0.57983061  0.35839150     0.05800
H2312       H  0.57404133  0.64648271  0.36125465     0.05800
C2313       C  0.64518278  0.62233340  0.12295987     0.03800
C2314       C  0.62333877  0.63752203  0.11946849     0.03700
C2315       C  0.59388364  0.62588279  0.13955837    -0.16800
C2316       C  0.58612778  0.60058919  0.16350611     0.03800
C2317       C  0.60708737  0.58460055  0.16571619     0.03700
C2318       C  0.63621446  0.59571398  0.14573416    -0.16800
H2319       H  0.65259683  0.58398708  0.14883028     0.05800
H2320       H  0.57718055  0.63736913  0.13744426     0.05800
C2321       C  0.51655485  0.86816052  0.37864296     0.03800
C2322       C  0.98206580  0.85609682  0.38022286     0.03700
C2323       C  0.96641154  0.87028119  0.35997777    -0.16800
C2324       C  0.98473157  0.89618747  0.33775998     0.03800
C2325       C  0.51957769  0.90898575  0.33649357     0.03700
C2326       C  0.53516488  0.89476465  0.35708166    -0.16800
H2327       H  0.56177230  0.90431390  0.35620334     0.05800
H2328       H  0.93975258  0.86027269  0.36049745     0.05800
C2329       C  0.99210980  0.85579712  0.11949718     0.03800
C2330       C  0.52692264  0.86932306  0.11883223     0.03700
C2331       C  0.54479112  0.89630752  0.14084650    -0.16800
C2332       C  0.52840834  0.90961448  0.16350527     0.03800
C2333       C  0.99359270  0.89605115  0.16357200     0.03700
C2334       C  0.97594188  0.86967892  0.14135326    -0.16800
H2335       H  0.94923465  0.85885380  0.14230718     0.05800
H2336       H  0.57146350  0.90689285  0.14046647     0.05800
C2337       C  0.65258011  0.69707403  0.04353047     0.25100
C2338       C  0.64993384  0.72478489  0.05834147    -0.23000
C2339       C  0.63736063  0.72326095  0.09234668     0.20000
C2340       C  0.62888378  0.69499382  0.11193148     0.25000
C2341       C  0.63118440  0.66687525  0.09730425    -0.23000
C2342       C  0.64199170  0.66786712  0.06233367     0.19900
F2343       F  0.64258801  0.64075874  0.04643155    -0.12900
F2344       F  0.66492183  0.69815992  0.01071593    -0.15300
F2345       F  0.61960484  0.69565380  0.14575510    -0.15300
F2346       F  0.63475764  0.74985334  0.10723176    -0.12900
C2347       C  0.55801158  0.84762483  0.03401952     0.25100
C2348       C  0.57944955  0.83425942  0.04512415    -0.23000
C2349       C  0.58297194  0.83217370  0.08120910     0.20000
C2350       C  0.56586181  0.84344042  0.10529633     0.25000
C2351       C  0.54485128  0.85683478  0.09384286    -0.23000
C2352       C  0.54116557  0.85884320  0.05809084     0.19900
F2353       F  0.52198165  0.87283070  0.04637889    -0.12900
F2354       F  0.55389907  0.85098047  0.99974676    -0.15300
F2355       F  0.56973651  0.84121342  0.13984892    -0.15300
F2356       F  0.60329419  0.81972113  0.09331826    -0.12900
C2357       C  0.80079165  0.96189283  0.09624734     0.25100
C2358       C  0.83182425  0.96125342  0.09333392    -0.23000
C2359       C  0.83649090  0.93954701  0.06920182     0.20000
C2360       C  0.81030452  0.91780790  0.04944251     0.25000
C2361       C  0.77893230  0.91745209  0.05338758    -0.23000
C2362       C  0.77463974  0.94043670  0.07599664     0.19900
F2363       F  0.74460075  0.94052709  0.08030795    -0.12900
F2364       F  0.79528519  0.98202755  0.11991925    -0.15300
F2365       F  0.81544934  0.89658831  0.02687182    -0.15300
F2366       F  0.86641217  0.93909318  0.06520602    -0.12900
C2367       C  0.63972686  0.73051204  0.41331546     0.25100
C2368       C  0.64773432  0.72939695  0.44818166    -0.23000
C2369       C  0.64381588  0.69906118  0.46154726     0.20000
C2370       C  0.63209369  0.67047871  0.44062688     0.25000
C2371       C  0.62560798  0.67175657  0.40522941    -0.23000
C2372       C  0.62941885  0.70214846  0.39184846     0.19900
F2373       F  0.62371568  0.70454760  0.35781152    -0.12900
F2374       F  0.64214183  0.75914161  0.39996700    -0.15300
F2375       F  0.62633598  0.64130846  0.45527986    -0.15300
F2376       F  0.64951200  0.69665658  0.49560142    -0.12900
C2377       C  0.55237730  0.85043985  0.45839168     0.25100
C2378       C  0.56761833  0.83107005  0.44452299    -0.23000
C2379       C  0.56352282  0.82137240  0.40928474     0.20000
C2380       C  0.54650476  0.83311616  0.38764001     0.25000
C2381       C  0.53333306  0.85437502  0.40121823    -0.23000
C2382       C  0.53546216  0.86208437  0.43688187     0.19900
F2383       F  0.52272325  0.88244529  0.45048234    -0.12900
F2384       F  0.55611063  0.86016462  0.49237369    -0.15300
F2385       F  0.54392616  0.82482028  0.35328430    -0.15300
F2386       F  0.57856731  0.80319190  0.39524491    -0.12900
C2387       C  0.79229580  0.92483681  0.44022035     0.25100
C2388       C  0.76162812  0.92352102  0.43099795    -0.23000
C2389       C  0.76079502  0.94432751  0.40453232     0.20000
C2390       C  0.78981108  0.96570931  0.38778919     0.25000
C2391       C  0.82018154  0.96689732  0.39715631    -0.23000
C2392       C  0.82124174  0.94620549  0.42328266     0.19900
F2393       F  0.85004932  0.44709919  0.43169624    -0.12900
F2394       F  0.79429126  0.90473267  0.46483415    -0.15300
F2395       F  0.78816457  0.98446865  0.36149222    -0.15300
F2396       F  0.73193576  0.94408913  0.39467402    -0.12900
C2397       C  0.55432129  0.67947464  0.92331973     0.25100
C2398       C  0.53201226  0.67949888  0.89861632    -0.23000
C2399       C  0.53150821  0.70935248  0.88970668     0.20000
C2400       C  0.55307622  0.73891584  0.90532060     0.25000
C2401       C  0.57572648  0.73909052  0.92997949    -0.23000
C2402       C  0.57600794  0.70896855  0.93890474     0.19900
F2403       F  0.59800387  0.70807051  0.96183755    -0.12900
F2404       F  0.55537395  0.65083189  0.93195566    -0.15300
F2405       F  0.55170813  0.76729998  0.89625648    -0.15300
F2406       F  0.01096837  0.71001053  0.86486768    -0.12900
C2407       C  0.64407271  0.96887688  0.93543785     0.25100
C2408       C  0.65049210  0.97032244  0.89949622    -0.23000
C2409       C  0.67005373  0.95558585  0.88497414     0.20000
C2410       C  0.68140454  0.93781328  0.90600191     0.25000
C2411       C  0.67289817  0.93440474  0.94157159    -0.23000
C2412       C  0.65525416  0.95109523  0.95633307     0.19900
F2413       F  0.64643198  0.94772553  0.99057808    -0.12900
F2414       F  0.62482671  0.48268121  0.95093347    -0.15300
F2415       F  0.69771870  0.92121188  0.89108056    -0.15300
F2416       F  0.67692157  0.95729045  0.85028346    -0.12900
C2417       C  0.79964406  0.88047204  0.56290556     0.25100
C2418       C  0.77329460  0.84905673  0.56653027    -0.23000
C2419       C  0.77592790  0.82707719  0.59028934     0.20000
C2420       C  0.80454659  0.83602851  0.60947100     0.25000
C2421       C  0.83150518  0.86677449  0.60456591    -0.23000
C2422       C  0.82852981  0.88915322  0.58157983     0.19900
F2423       F  0.85392956  0.91924769  0.57667346    -0.12900
F2424       F  0.79779761  0.90255775  0.54070049    -0.15300
F2425       F  0.80564951  0.81490970  0.63341946    -0.15300
F2426       F  0.75027599  0.79730345  0.59589570    -0.12900
C2427       C  0.77645127  0.82893935  0.92000026     0.25100
C2428       C  0.77004630  0.85236273  0.93979555    -0.23000
C2429       C  0.79308652  0.88570385  0.93878254     0.20000
C2430       C  0.82259351  0.89516674  0.91992023     0.25000
C2431       C  0.82940881  0.87179586  0.90040310    -0.23000
C2432       C  0.80526616  0.83879471  0.89936892     0.19900
F2433       F  0.80931749  0.81614689  0.87810721    -0.12900
F2434       F  0.75462834  0.79669029  0.92017831    -0.15300
F2435       F  0.84497657  0.92722691  0.92158841    -0.15300
F2436       F  0.78789443  0.90913916  0.95764170    -0.12900
C2437       C  0.64088067  0.95911893  0.55944827     0.25100
C2438       C  0.64637193  0.95881966  0.59497049    -0.23000
C2439       C  0.66331963  0.94113831  0.60669800     0.20000
C2440       C  0.67451798  0.92372517  0.58291216     0.25000
C2441       C  0.66883870  0.92379018  0.54700526    -0.23000
C2442       C  0.65213272  0.94214493  0.53569101     0.19900
F2443       F  0.64539718  0.94287977  0.50163083    -0.12900
F2444       F  0.62352932  0.97512649  0.54782101    -0.15300
F2445       F  0.69064716  0.90672420  0.59508719    -0.15300
F2446       F  0.66903472  0.94081921  0.64112223    -0.12900
C2447       C  0.57088811  0.69341628  0.54886714     0.25100
C2448       C  0.57834634  0.72570392  0.56060020    -0.23000
C2449       C  0.56400024  0.73081462  0.59170517     0.20000
C2450       C  0.54296036  0.70384023  0.61131235     0.25000
C2451       C  0.53620001  0.67160274  0.59993848    -0.23000
C2452       C  0.55015989  0.66653007  0.56856954     0.19900
F2453       F  0.54445634  0.63556683  0.55762492    -0.12900
F2454       F  0.58481943  0.68806098  0.51898870    -0.15300
F2455       F  0.53071803  0.70914607  0.64234443    -0.15300
F2456       F  0.57233444  0.76186347  0.60429366    -0.12900
C2457       C  0.94534536  0.65032662  0.54435953     0.25100
C2458       C  0.92890690  0.66830557  0.55886716    -0.23000
C2459       C  0.93177046  0.67655168  0.59449277     0.20000
C2460       C  0.94935225  0.66516434  0.61571470     0.25000
C2461       C  0.96435467  0.64581008  0.60127737    -0.23000
C2462       C  0.96291707  0.63914817  0.56541984     0.19900
F2463       F  0.97659536  0.61980442  0.55123172    -0.12900
F2464       F  0.94199689  0.64122798  0.51019216    -0.15300
F2465       F  0.95044661  0.67162083  0.65046746    -0.15300
F2466       F  0.91484636  0.69263044  0.60921061    -0.12900
C2467       C  0.84136371  0.55376908  0.46225903     0.25100
C2468       C  0.82847758  0.57560533  0.45116359    -0.23000
C2469       C  0.82572781  0.57857176  0.41507238     0.20000
C2470       C  0.83682041  0.56129025  0.39096883     0.25000
C2471       C  0.85057398  0.54056794  0.40241057    -0.23000
C2472       C  0.85254472  0.53687871  0.43819363     0.19900
F2473       F  0.86653377  0.51771883  0.44997516    -0.12900
F2474       F  0.84429092  0.54930604  0.49654195    -0.15300
F2475       F  0.83416397  0.56477942  0.35641318    -0.15300
F2476       F  0.81270625  0.59843457  0.40297491    -0.12900
C2477       C  0.73542764  0.55317657  0.59170280     0.25100
C2478       C  0.73474690  0.57385539  0.56503282    -0.23000
C2479       C  0.70407470  0.57210953  0.55509667     0.20000
C2480       C  0.67505988  0.55096415  0.57212941     0.25000
C2481       C  0.67616392  0.53109353  0.59907853    -0.23000
C2482       C  0.70643873  0.53222761  0.60863570     0.19900
F2483       F  0.70807092  0.51398058  0.63544370    -0.12900
F2484       F  0.76417055  0.55330585  0.60181551    -0.15300
F2485       F  0.64586834  0.55023748  0.56275720    -0.15300
F2486       F  0.70212963  0.59165773  0.52984685    -0.12900
C2487       C  0.92882529  0.80726070  0.45467713     0.25100
C2488       C  0.92121807  0.77483179  0.44343071    -0.23000
C2489       C  0.93517478  0.76918626  0.41231156     0.20000
C2490       C  0.95563766  0.79577828  0.39195859     0.25000
C2491       C  0.96192175  0.82811385  0.40244986    -0.23000
C2492       C  0.94885521  0.83376898  0.43413824     0.19900
F2493       F  0.95479181  0.86490290  0.44463026    -0.12900
F2494       F  0.91552894  0.81306276  0.48478802    -0.15300
F2495       F  0.96790197  0.78996516  0.36116957    -0.15300
F2496       F  0.92685651  0.73793483  0.40036727    -0.12900
C2497       C  0.72141278  0.67366160  0.41153892     0.25100
C2498       C  0.72579193  0.65159057  0.43378778    -0.23000
C2499       C  0.70051979  0.61954334  0.43721933     0.20000
C2500       C  0.67073714  0.61040503  0.42038057     0.25000
C2501       C  0.66598658  0.63276785  0.39890596    -0.23000
C2502       C  0.69198788  0.66409997  0.39374112     0.19900
F2503       F  0.68917844  0.68516493  0.37083937    -0.12900
F2504       F  0.74609579  0.70404896  0.40595006    -0.15300
F2505       F  0.64629912  0.57976237  0.42544298    -0.15300
F2506       F  0.70435489  0.59713282  0.45733941    -0.12900
C2507       C  0.86418802  0.79484098  0.61289281     0.25100
C2508       C  0.86996104  0.82594062  0.59982155    -0.23000
C2509       C  0.86545110  0.82832000  0.56411659     0.20000
C2510       C  0.85386267  0.80025261  0.54242793     0.25000
C2511       C  0.84816998  0.76923037  0.55535506    -0.23000
C2512       C  0.85391594  0.76687229  0.59072632     0.19900
F2513       F  0.84936601  0.73744032  0.60383454    -0.12900
F2514       F  0.86816590  0.79145286  0.64717906    -0.15300
F2515       F  0.85010006  0.80380679  0.50811970    -0.15300
F2516       F  0.87325132  0.85814036  0.54990100    -0.12900
C2517       C  0.70703098  0.54550460  0.89610255     0.25100
C2518       C  0.67486338  0.54224576  0.90279412    -0.23000
C2519       C  0.66865652  0.55886746  0.93145649     0.20000
C2520       C  0.69451248  0.57986244  0.95213725     0.25000
C2521       C  0.72690504  0.58424475  0.94464048    -0.23000
C2522       C  0.73289544  0.56612854  0.91720864     0.19900
F2523       F  0.76405419  0.57028508  0.90931003    -0.12900
F2524       F  0.71360118  0.53000202  0.86816696    -0.15300
F2525       F  0.68811014  0.59667621  0.97898444    -0.15300
F2526       F  0.63755906  0.55506851  0.93904591    -0.12900
C2527       C  0.72895374  0.67496951  0.08034365     0.25100
C2528       C  0.73523048  0.65083506  0.06167005    -0.23000
C2529       C  0.71275882  0.61750185  0.06491121     0.20000
C2530       C  0.68378317  0.60863680  0.08459751     0.25000
C2531       C  0.67707493  0.63264441  0.10307431    -0.23000
C2532       C  0.70075169  0.66582133  0.10191492     0.19900
F2533       F  0.69646205  0.68944680  0.12129583    -0.12900
F2534       F  0.75015524  0.70731017  0.07787439    -0.15300
F2535       F  0.66155155  0.57649051  0.08434701    -0.15300
F2536       F  0.71776767  0.59339162  0.04719472    -0.12900
C2537       C  0.93985055  0.66343398  0.89414347     0.25100
C2538       C  0.95905198  0.64792813  0.90543868    -0.23000
C2539       C  0.96167447  0.64449100  0.94112322     0.20000
C2540       C  0.94518886  0.65599883  0.96530763     0.25000
C2541       C  0.92513572  0.67100986  0.95434840    -0.23000
C2542       C  0.92309786  0.67500878  0.91835641     0.19900
F2543       F  0.90482766  0.68992217  0.90649106    -0.12900
F2544       F  0.93759254  0.66760292  0.85966446    -0.15300
F2545       F  0.94825009  0.65133951  0.99951028    -0.15300
F2546       F  0.97959828  0.62902338  0.95260226    -0.12900
C2547       C  0.83042406  0.57025469  0.09330619     0.25100
C2548       C  0.83230541  0.56961557  0.05690491    -0.23000
C2549       C  0.84430431  0.54894233  0.03965299     0.20000
C2550       C  0.85682603  0.53104044  0.05870020     0.25000
C2551       C  0.85726938  0.53366990  0.09519784    -0.23000
C2552       C  0.84304804  0.55252478  0.11238739     0.19900
F2553       F  0.84228353  0.55443511  0.14767456    -0.12900
F2554       F  0.81938534  0.59059867  0.11028987    -0.15300
F2555       F  0.87018655  0.51272128  0.04153770    -0.15300
F2556       F  0.84614127  0.54813834  0.00435986    -0.12900
C2557       C  0.97116160  0.79523031  0.11041171     0.25100
C2558       C  0.97159457  0.82517505  0.10042642    -0.23000
C2559       C  0.94989559  0.82526483  0.07500171     0.20000
C2560       C  0.92824922  0.79571255  0.05935851     0.25000
C2561       C  0.92757212  0.76542749  0.06941112    -0.23000
C2562       C  0.94934756  0.76559919  0.09515162     0.19900
F2563       F  0.94960125  0.73712615  0.10572678    -0.12900
F2564       F  0.99101520  0.79461544  0.13604225    -0.15300
F2565       F  0.90727045  0.79676369  0.03522799    -0.15300
F2566       F  0.94939188  0.85400077  0.06571854    -0.12900
C2567       C  0.86552507  0.83600424  0.94058445     0.25100
C2568       C  0.87328640  0.83629490  0.90481212    -0.23000
C2569       C  0.87101301  0.80710725  0.88816347     0.20000
C2570       C  0.86083450  0.77813794  0.90674207     0.25000
C2571       C  0.85214414  0.77764663  0.94203076    -0.23000
C2572       C  0.85447512  0.80660781  0.95898649     0.19900
F2573       F  0.84680783  0.80650844  0.99339656    -0.12900
F2574       F  0.86866656  0.86407606  0.95758297    -0.15300
F2575       F  0.85862342  0.75021321  0.89006679    -0.15300
F2576       F  0.87749514  0.80637233  0.85352166    -0.12900
loop_ 
_geom_bond_atom_site_label_1 
_geom_bond_atom_site_label_2 
_geom_bond_distance 
_geom_bond_site_symmetry_2 
_ccdc_geom_bond_type 
O1           Ni7   1.911       .  S
O1           C22   1.265       .  A
O2          Ni25   1.879       .  S
O2           C11   1.265       .  A
O3           Ni7   1.888       .  S
O3          Ni25   1.881   1_554  S
O3          Ni19   1.919       .  S
O3           H26   0.965       .  S
C4           O21   1.281       .  A
C4           O13   1.283       .  A
C4          C589   1.468       .  S
O5          Ni24   1.947       .  S
O5           C11   1.278       .  A
O6          Ni24   1.920   1_554  S
O6            C8   1.270       .  A
Ni7          O10   1.915       .  S
Ni7          O12   1.904       .  S
C8           O18   1.270       .  A
C8          C596   1.484       .  S
O9          Ni25   1.928   1_554  S
O9           C15   1.278       .  A
O10          C15   1.278       .  A
C11         C639   1.458       .  S
O12          C14   1.264   1_554  A
O13         Ni24   1.936       .  S
C14          O20   1.273       .  A
C14         C609   1.493       .  S
C15         C629   1.484       .  S
H16          O17   0.966       .  S
O17         Ni25   1.892       .  S
O17         Ni19   1.889   1_556  S
O17         Ni24   1.889       .  S
O18         Ni19   1.926       .  S
Ni19         O23   1.914       .  S
Ni19         O21   1.915   1_554  S
O20         Ni25   1.938       .  S
C22          O23   1.268       .  A
C22         C616   1.452       .  S
O27         Ni33   1.941       .  S
O27          C48   1.279       .  A
O28         Ni51   1.923       .  S
O28          C37   1.270       .  A
O29         Ni33   1.892       .  S
O29         Ni51   1.898       .  S
O29         Ni45   1.902       .  S
O29          H52   0.967       .  S
C30          O47   1.282       .  A
C30          O39   1.276       .  A
C30         C546   1.485       .  S
O31         Ni50   1.903       .  S
O31          C37   1.263       .  A
O32         Ni50   1.903       .  S
O32          C34   1.264       .  A
Ni33         O36   1.922       .  S
Ni33         O38   1.919       .  S
C34          O44   1.272       .  A
C34         C536   1.497       .  S
O35         Ni51   1.915       .  S
O35          C41   1.279       .  A
O36          C41   1.278       .  A
C37         C526   1.459       .  S
O38          C40   1.273       .  A
O39         Ni50   1.903       .  S
C40          O46   1.273       .  A
C40         C579   1.486       .  S
C41         C556   1.461       .  S
H42          O43   0.966       .  S
O43         Ni51   1.914       .  S
O43         Ni45   1.882       .  S
O43         Ni50   1.884       .  S
O44         Ni45   1.942       .  S
Ni45         O49   1.885       .  S
Ni45         O47   1.940       .  S
O46         Ni51   1.937       .  S
C48          O49   1.267       .  A
C48         C566   1.473       .  S
N53          C58   1.352       .  A
N53         C701   1.354   1_545  A
N53          H85   1.039       .  S
N54          C61   1.346       .  A
N54          C62   1.347       .  A
N55          C60   1.349       .  A
N55         C703   1.351   1_545  A
N55          H86   1.040       .  S
N56          C63   1.350       .  A
N56          C64   1.350       .  A
C57         N697   1.354       .  A
C57          C65   1.385       .  A
C57          C73   1.418       .  A
C58          C74   1.421       .  A
C58          C66   1.388       .  A
C59         N699   1.351       .  A
C59          C67   1.385       .  A
C59          C76   1.411       .  A
C60          C75   1.414       .  A
C60          C68   1.387       .  A
C61          C73   1.405       .  A
C61          C69   1.385       .  A
C62          C76   1.403       .  A
C62          C70   1.384       .  A
C63          C71   1.387       .  A
C63          C74   1.415       .  A
C64          C72   1.385       .  A
C64          C75   1.413       .  A
C65         C710   1.384       .  A
C65          H77   1.081       .  S
C66         C709   1.384   1_545  A
C66          H78   1.081       .  S
C67         C712   1.381       .  A
C67          H79   1.081       .  S
C68         C711   1.380   1_545  A
C68          H80   1.081       .  S
C69          C70   1.374       .  A
C69          H81   1.082       .  S
C70          H82   1.082       .  S
C71          C72   1.378       .  A
C71        H1371   1.082       .  S
C72          H84   1.082       .  S
C73         C183   1.489       .  S
C74         C158   1.494       .  S
C75         C199   1.487       .  S
C76         C174   1.481       .  S
H83        C1359   1.082       .  S
N87          C92   1.348       .  A
N87          C91   1.347       .  A
N87         H119   1.038       .  S
N88          C95   1.346       .  A
N88          C96   1.346       .  A
N89          C94   1.350       .  A
N89          C93   1.350       .  A
N89         H120   1.038       .  S
N90          C97   1.348       .  A
N90          C98   1.347       .  A
C91          C99   1.386       .  A
C91         C107   1.408       .  A
C92         C108   1.410       .  A
C92         C100   1.386       .  A
C93         C101   1.386       .  A
C93         C110   1.413       .  A
C94         C109   1.413       .  A
C94         C102   1.386       .  A
C95         C107   1.405       .  A
C95         C103   1.386       .  A
C96         C110   1.404       .  A
C96         C104   1.385       .  A
C97         C105   1.385       .  A
C97         C108   1.407       .  A
C98         C106   1.385       .  A
C98         C109   1.408       .  A
C99         C100   1.380       .  A
C99         H111   1.081       .  S
C100        H112   1.081       .  S
C101        C102   1.382       .  A
C101        H113   1.081       .  S
C102        H114   1.081       .  S
C103        C104   1.372       .  A
C103        H115   1.082       .  S
C104        H116   1.082       .  S
C105        C106   1.375       .  A
C105        H117   1.082       .  S
C106        H118   1.082       .  S
C107        C159   1.474       .  S
C108        C167   1.481       .  S
C109        C190   1.483       .  S
C110        C198   1.482       .  S
N121        C126   1.353       .  A
N121       C1413   1.351   1_455  A
N121        H153   1.039       .  S
N122        C129   1.349       .  A
N122        C130   1.352       .  A
N123        C128   1.351       .  A
N123       C1415   1.355   1_455  A
N123        H154   1.040       .  S
N124        C131   1.350       .  A
N124        C132   1.348       .  A
C125       N1409   1.351       .  A
C125        C133   1.386       .  A
C125        C141   1.415       .  A
C126        C142   1.417       .  A
C126        C134   1.386       .  A
C127       N1411   1.355       .  A
C127        C135   1.385       .  A
C127        C144   1.416       .  A
C128        C143   1.417       .  A
C128        C136   1.387       .  A
C129        C141   1.413       .  A
C129        C137   1.386       .  A
C130        C144   1.412       .  A
C130        C138   1.384       .  A
C131        C139   1.385       .  A
C131        C142   1.410       .  A
C132        C140   1.386       .  A
C132        C143   1.410       .  A
C133       C1422   1.381       .  A
C133        H145   1.081       .  S
C134       C1421   1.381   1_455  A
C134        H146   1.081       .  S
C135       C1424   1.382       .  A
C135        H147   1.081       .  S
C136       C1423   1.382   1_455  A
C136        H148   1.081       .  S
C137        C138   1.378       .  A
C137        H149   1.082       .  S
C138        H150   1.082       .  S
C139        C140   1.376       .  A
C139        H795   1.082       .  S
C140        H796   1.082       .  S
C141        C175   1.488       .  S
C142        C191   1.492       .  S
C143        C166   1.485       .  S
C144        C182   1.499       .  S
H151        C783   1.082       .  S
H152        C784   1.082       .  S
C155        C519   1.476       .  S
C155        C160   1.394       .  A
C155       C1444   1.409   1_455  A
C156        C529   1.472       .  S
C156        C157   1.406       .  A
C156       C1443   1.409       .  A
C157        C158   1.402       .  A
C157        H162   1.084       .  S
C158       C1447   1.416       .  A
C159        C160   1.396       .  A
C159       C1446   1.416   1_455  A
C160        H161   1.085       .  S
C163        C549   1.474       .  S
C163        C168   1.397       .  A
C163        C808   1.413   1_545  A
C164        C506   1.479       .  S
C164        C165   1.402       .  A
C164        C807   1.413       .  A
C165        C166   1.402       .  A
C165        H170   1.084       .  S
C166        C811   1.416       .  A
C167        C168   1.395       .  A
C167        C810   1.416   1_545  A
C168        H169   1.085       .  S
C171        C636   1.479       .  S
C171        C172   1.420       .  A
C171        C176   1.405       .  A
C172        C499   1.492       .  S
C172        C173   1.404       .  A
C173        C174   1.398       .  A
C173        H178   1.084       .  S
C174        C175   1.414       .  A
C175        C176   1.396       .  A
C176        H177   1.085       .  S
C179        C489   1.491       .  S
C179        C180   1.424       .  A
C179        C184   1.403       .  A
C180        C576   1.501       .  S
C180        C181   1.414       .  A
C181        C182   1.410       .  A
C181        H186   1.084       .  S
C182        C183   1.419       .  A
C183        C184   1.398       .  A
C184        H185   1.085       .  S
C187        C476   1.474       .  S
C187        C192   1.404       .  A
C187        C832   1.408       .  A
C188        C586   1.478       .  S
C188        C189   1.401       .  A
C188        C831   1.408   1_545  A
C189        C190   1.401       .  A
C189        H194   1.084       .  S
C190        C835   1.418   1_545  A
C191        C192   1.402       .  A
C191        C834   1.418       .  A
C192        H193   1.084       .  S
C195        C606   1.483       .  S
C195        C200   1.406       .  A
C195       C1484   1.414       .  A
C196        C466   1.474       .  S
C196        C197   1.397       .  A
C196       C1483   1.414   1_455  A
C197        C198   1.393       .  A
C197        H202   1.085       .  S
C198       C1487   1.416   1_455  A
C199        C200   1.405       .  A
C199       C1486   1.416       .  A
C200        H201   1.084       .  S
O203       Ni209   1.904       .  S
O203        C224   1.263       .  A
O204       Ni227   1.902       .  S
O204        C213   1.270       .  A
O205       Ni209   1.888       .  S
O205       Ni227   1.886       .  S
O205       Ni221   1.917       .  S
O205        H228   0.966       .  S
C206        O223   1.281       .  A
C206        O215   1.278       .  A
C206        C516   1.464       .  S
O207       Ni226   1.940       .  S
O207        C213   1.278       .  A
O208       Ni226   1.916       .  S
O208        C210   1.273       .  A
Ni209       O212   1.906       .  S
Ni209       O214   1.902       .  S
C210        O220   1.274       .  A
C210        C436   1.486       .  S
O211       Ni227   1.939       .  S
O211        C217   1.283       .  A
O212        C217   1.277       .  A
C213        C486   1.482       .  S
O214        C216   1.264       .  A
O215       Ni226   1.922       .  S
C216        O222   1.271       .  A
C216        C509   1.492       .  S
C217        C456   1.485       .  S
H218        O219   0.966       .  S
O219       Ni227   1.907       .  S
O219       Ni221   1.902       .  S
O219       Ni226   1.889       .  S
O220       Ni221   1.936       .  S
Ni221       O225   1.932       .  S
Ni221       O223   1.921       .  S
O222       Ni227   1.938       .  S
C224        O225   1.273       .  A
C224        C446   1.465       .  S
O229       Ni235   1.950       .  S
O229        C250   1.278       .  A
O230       Ni253   1.928       .  S
O230        C239   1.272       .  A
O231       Ni235   1.890       .  S
O231       Ni253   1.895   1_554  S
O231       Ni247   1.891       .  S
O231        H254   0.966       .  S
C232        O249   1.278       .  A
C232        O241   1.277       .  A
C232        C469   1.479       .  S
O233       Ni252   1.907       .  S
O233        C239   1.264       .  A
O234       Ni252   1.904       .  S
O234        C236   1.265   1_556  A
Ni235       O238   1.935       .  S
Ni235       O240   1.920   1_554  S
C236        O246   1.274       .  A
C236        C416   1.495       .  S
O237       Ni253   1.916   1_554  S
O237        C243   1.283       .  A
O238        C243   1.283       .  A
C239        C479   1.463       .  S
O240        C242   1.270       .  A
O241       Ni252   1.912       .  S
C242        O248   1.269       .  A
C242        C496   1.479       .  S
C243        C429   1.473       .  S
H244        O245   0.966       .  S
O245       Ni253   1.917       .  S
O245       Ni247   1.884   1_556  S
O245       Ni252   1.887       .  S
O246       Ni247   1.941       .  S
Ni247       O251   1.891       .  S
Ni247       O249   1.925   1_554  S
O248       Ni253   1.920       .  S
C250        O251   1.268       .  A
C250        C406   1.471       .  S
N255        C260   1.353       .  A
N255       C1547   1.354       .  A
N255        H287   1.039       .  S
N256        C263   1.351       .  A
N256        C264   1.351       .  A
N257        C262   1.352       .  A
N257       C1549   1.353       .  A
N257        H288   1.040       .  S
N258        C265   1.351       .  A
N258        C266   1.351       .  A
C259       N1543   1.354   1_455  A
C259        C267   1.385       .  A
C259        C275   1.416       .  A
C260        C276   1.419       .  A
C260        C268   1.387       .  A
C261       N1545   1.353   1_455  A
C261        C269   1.386       .  A
C261        C278   1.414       .  A
C262        C277   1.417       .  A
C262        C270   1.387       .  A
C263        C275   1.414       .  A
C263        C271   1.385       .  A
C264        C278   1.412       .  A
C264        C272   1.385       .  A
C265        C273   1.386       .  A
C265        C276   1.414       .  A
C266        C274   1.385       .  A
C266        C277   1.413       .  A
C267       C1556   1.382   1_455  A
C267        H279   1.081       .  S
C268       C1555   1.382       .  A
C268        H280   1.080       .  S
C269       C1558   1.381   1_455  A
C269        H281   1.081       .  S
C270       C1557   1.381       .  A
C270        H282   1.081       .  S
C271        C272   1.379       .  A
C271        H283   1.082       .  S
C272        H284   1.082       .  S
C273        C274   1.377       .  A
C273        H929   1.082       .  S
C274        H930   1.082       .  S
C275        C384   1.497       .  S
C276        C369   1.494       .  S
C277        C327   1.492       .  S
C278        C376   1.493       .  S
H285        C917   1.082       .  S
H286        C918   1.082       .  S
N289        C294   1.350       .  A
N289        C293   1.349       .  A
N289        H321   1.039       .  S
N290        C297   1.346       .  A
N290        C298   1.348       .  A
N291        C296   1.346       .  A
N291        C295   1.349       .  A
N291        H322   1.038       .  S
N292        C299   1.346       .  A
N292        C300   1.346       .  A
C293        C301   1.386       .  A
C293        C309   1.411       .  A
C294        C310   1.412       .  A
C294        C302   1.386       .  A
C295        C303   1.386       .  A
C295        C312   1.409       .  A
C296        C311   1.408       .  A
C296        C304   1.386       .  A
C297        C309   1.406       .  A
C297        C305   1.386       .  A
C298        C312   1.405       .  A
C298        C306   1.384       .  A
C299        C307   1.385       .  A
C299        C310   1.404       .  A
C300        C308   1.386       .  A
C300        C311   1.405       .  A
C301        C302   1.381       .  A
C301        H313   1.081       .  S
C302        H314   1.081       .  S
C303        C304   1.379       .  A
C303        H315   1.081       .  S
C304        H316   1.081       .  S
C305        C306   1.375       .  A
C305        H317   1.082       .  S
C306        H318   1.082       .  S
C307        C308   1.375       .  A
C307        H319   1.082       .  S
C308        H320   1.082       .  S
C309        C392   1.480       .  S
C310        C326   1.480       .  S
C311        C368   1.473       .  S
C312        C401   1.481       .  S
C323        C539   1.487       .  S
C323        C328   1.408       .  A
C323        C968   1.416   1_545  A
C324        C459   1.477       .  S
C324        C325   1.397       .  A
C324        C967   1.415       .  A
C325        C326   1.394       .  A
C325        H330   1.085       .  S
C326        C971   1.416       .  A
C327        C328   1.405       .  A
C327        C970   1.416   1_545  A
C328        H329   1.084       .  S
N331        C336   1.352       .  A
N331        C979   1.353       .  A
N331        H363   1.038       .  S
N332        C339   1.346       .  A
N332        C340   1.348       .  A
N333        C338   1.351       .  A
N333        C981   1.353       .  A
N333        H364   1.040       .  S
N334        C341   1.351       .  A
N334        C342   1.349       .  A
C335        N975   1.353   1_545  A
C335        C343   1.386       .  A
C335        C351   1.417       .  A
C336        C352   1.419       .  A
C336        C344   1.387       .  A
C337        N977   1.354   1_545  A
C337        C345   1.385       .  A
C337        C354   1.415       .  A
C338        C353   1.416       .  A
C338        C346   1.387       .  A
C339        C351   1.407       .  A
C339        C347   1.386       .  A
C340        C354   1.403       .  A
C340        C348   1.384       .  A
C341        C349   1.386       .  A
C341        C352   1.414       .  A
C342        C350   1.385       .  A
C342        C353   1.412       .  A
C343        C988   1.383   1_545  A
C343        H355   1.081       .  S
C344        C987   1.382       .  A
C344        H356   1.081       .  S
C345        C990   1.382   1_545  A
C345        H357   1.081       .  S
C346        C989   1.381       .  A
C346        H358   1.081       .  S
C347        C348   1.374       .  A
C347        H359   1.082       .  S
C348        H360   1.082       .  S
C349        C350   1.378       .  A
C349       H1649   1.082       .  S
C350        H362   1.082       .  S
C351        C377   1.486       .  S
C352        C393   1.493       .  S
C353        C400   1.488       .  S
C354        C385   1.488       .  S
H361       C1637   1.082       .  S
C365        C619   1.472       .  S
C365        C370   1.407       .  A
C365       C1010   1.411   1_545  A
C366        C426   1.484       .  S
C366        C367   1.398       .  A
C366       C1009   1.412       .  A
C367        C368   1.397       .  A
C367        H372   1.085       .  S
C368       C1013   1.414       .  A
C369        C370   1.400       .  A
C369       C1012   1.415   1_545  A
C370        H371   1.084       .  S
C373        C569   1.482       .  S
C373        C374   1.422       .  A
C373        C378   1.401       .  A
C374        C439   1.501       .  S
C374        C375   1.412       .  A
C375        C376   1.408       .  A
C375        H380   1.083       .  S
C376        C377   1.417       .  A
C377        C378   1.394       .  A
C378        H379   1.085       .  S
C381        C599   1.500       .  S
C381        C382   1.426       .  A
C381        C386   1.410       .  A
C382        C409   1.494       .  S
C382        C383   1.412       .  A
C383        C384   1.401       .  A
C383        H388   1.084       .  S
C384        C385   1.414       .  A
C385        C386   1.401       .  A
C386        H387   1.084       .  S
C389        C449   1.478       .  S
C389        C394   1.405       .  A
C389       C1678   1.408   1_455  A
C390        C559   1.473       .  S
C390        C391   1.398       .  A
C390       C1677   1.408       .  A
C391        C392   1.398       .  A
C391        H396   1.085       .  S
C392       C1681   1.418       .  A
C393        C394   1.404       .  A
C393       C1680   1.418   1_455  A
C394        H395   1.084       .  S
C397        C626   1.477       .  S
C397        C402   1.397       .  A
C397       C1686   1.417       .  A
C398        C419   1.486       .  S
C398        C399   1.407       .  A
C398       C1685   1.417   1_455  A
C399        C400   1.404       .  A
C399        H404   1.084       .  S
C400       C1689   1.415   1_455  A
C401        C402   1.393       .  A
C401       C1688   1.415       .  A
C402        H403   1.085       .  S
C405        C406   1.404       .  A
C405        C410   1.403       .  A
C405        F412   1.358       .  S
C406        C407   1.401       .  A
C407        C408   1.395       .  A
C407        F414   1.358       .  S
C408        C409   1.410       .  A
C408        F413   1.358       .  S
C409        C410   1.412       .  A
C410        F411   1.357       .  S
C415        C416   1.417       .  A
C415        C420   1.395       .  A
C415        F422   1.358   1_554  S
C416        C417   1.412       .  A
C417        C418   1.405       .  A
C417        F424   1.357       .  S
C418        C419   1.406       .  A
C418        F423   1.358       .  S
C419        C420   1.401       .  A
C420        F421   1.358       .  S
C425        C426   1.409       .  A
C425        C430   1.399       .  A
C425        F432   1.357       .  S
C426        C427   1.403       .  A
C427        C428   1.394       .  A
C427        F434   1.358       .  S
C428        C429   1.408       .  A
C428        F433   1.359       .  S
C429        C430   1.404       .  A
C430        F431   1.358       .  S
C435        C436   1.407       .  A
C435        C440   1.405       .  A
C435        F442   1.357       .  S
C436        C437   1.408       .  A
C437        C438   1.401       .  A
C437        F444   1.358       .  S
C438        C439   1.410       .  A
C438        F443   1.358       .  S
C439        C440   1.411       .  A
C440        F441   1.357       .  S
C445        C446   1.405       .  A
C445        C450   1.394       .  A
C445        F452   1.358       .  S
C446        C447   1.405       .  A
C447        C448   1.402       .  A
C447        F454   1.358       .  S
C448        C449   1.405       .  A
C448        F453   1.358       .  S
C449        C450   1.403       .  A
C450        F451   1.358       .  S
C455        C456   1.410       .  A
C455        C460   1.398       .  A
C455        F462   1.357       .  S
C456        C457   1.413       .  A
C457        C458   1.397       .  A
C457        F464   1.358       .  S
C458        C459   1.401       .  A
C458        F463   1.358       .  S
C459        C460   1.403       .  A
C460       F1105   1.358       .  S
F461       C1104   1.358       .  S
C465        C466   1.402       .  A
C465        C470   1.395       .  A
C465        F472   1.358       .  S
C466        C467   1.402       .  A
C467        C468   1.396       .  A
C467       F1762   1.358       .  S
C468        C469   1.409       .  A
C468        F473   1.358       .  S
C469        C470   1.411       .  A
C470        F471   1.358       .  S
F474       C1755   1.358       .  S
C475        C476   1.401       .  A
C475        C480   1.393       .  A
C475       F1126   1.358       .  S
C476        C477   1.404       .  A
C477        C478   1.400       .  A
C477        F484   1.358       .  S
C478        C479   1.404       .  A
C478        F483   1.358       .  S
C479        C480   1.405       .  A
C480        F481   1.358       .  S
F482       C1119   1.358       .  S
C485        C486   1.407       .  A
C485        C490   1.400       .  A
C485        F492   1.357       .  S
C486        C487   1.408       .  A
C487        C488   1.400       .  A
C487        F494   1.358       .  S
C488        C489   1.406       .  A
C488        F493   1.358       .  S
C489        C490   1.408       .  A
C490        F491   1.358       .  S
C495        C496   1.404       .  A
C495        C500   1.404       .  A
C495        F502   1.357       .  S
C496        C497   1.409       .  A
C497        C498   1.394       .  A
C497        F504   1.359       .  S
C498        C499   1.405       .  A
C498        F503   1.359       .  S
C499        C500   1.412       .  A
C500        F501   1.357       .  S
C505        C506   1.398       .  A
C505        C510   1.393       .  A
C505        F512   1.358       .  S
C506        C507   1.405       .  A
C507        C508   1.405       .  A
C507        F514   1.358       .  S
C508        C509   1.413       .  A
C508        F513   1.358       .  S
C509        C510   1.416       .  A
C510        F511   1.358       .  S
C515        C516   1.405       .  A
C515        C520   1.393       .  A
C515        F522   1.357       .  S
C516        C517   1.403       .  A
C517        C518   1.400       .  A
C517        F524   1.358       .  S
C518        C519   1.406       .  A
C518        F523   1.357       .  S
C519        C520   1.401       .  A
C520        F521   1.358       .  S
C525        C526   1.403       .  A
C525        C530   1.391       .  A
C525        F532   1.358       .  S
C526        C527   1.404       .  A
C527        C528   1.399       .  A
C527        F534   1.358       .  S
C528        C529   1.404       .  A
C528        F533   1.358       .  S
C529        C530   1.402       .  A
C530        F531   1.358       .  S
C535        C536   1.416       .  A
C535        C540   1.395       .  A
C535        F542   1.358       .  S
C536        C537   1.413       .  A
C537        C538   1.406       .  A
C537        F544   1.357       .  S
C538        C539   1.406       .  A
C538        F543   1.358       .  S
C539        C540   1.401       .  A
C540        F541   1.358       .  S
C545        C546   1.413       .  A
C545        C550   1.393       .  A
C545        F552   1.358       .  S
C546        C547   1.411       .  A
C547        C548   1.399       .  A
C547        F554   1.356       .  S
C548        C549   1.402       .  A
C548        F553   1.358       .  S
C549        C550   1.399       .  A
C550        F551   1.358       .  S
C555        C556   1.404       .  A
C555        C560   1.393       .  A
C555        F562   1.357       .  S
C556        C557   1.402       .  A
C557        C558   1.398       .  A
C557        F564   1.358       .  S
C558        C559   1.406       .  A
C558        F563   1.358       .  S
C559        C560   1.401       .  A
C560        F561   1.358       .  S
C565        C566   1.406       .  A
C565        C570   1.397       .  A
C565        F572   1.358       .  S
C566        C567   1.407       .  A
C567        C568   1.394       .  A
C567        F574   1.357       .  S
C568        C569   1.406       .  A
C568        F573   1.358       .  S
C569        C570   1.406       .  A
C570        F571   1.358       .  S
C575        C576   1.412       .  A
C575        C580   1.409       .  A
C575        F582   1.358       .  S
C576        C577   1.408       .  A
C577        C578   1.399       .  A
C577        F584   1.357       .  S
C578        C579   1.406       .  A
C578        F583   1.358       .  S
C579        C580   1.408       .  A
C580        F581   1.358       .  S
C585        C586   1.407       .  A
C585        C590   1.400       .  A
C585        F592   1.357       .  S
C586        C587   1.402       .  A
C587        C588   1.395       .  A
C587        F594   1.358       .  S
C588        C589   1.405       .  A
C588        F593   1.358       .  S
C589        C590   1.404       .  A
C590        F591   1.358       .  S
C595        C596   1.406       .  A
C595        C600   1.406       .  A
C595        F602   1.357       .  S
C596        C597   1.408       .  A
C597        C598   1.395       .  A
C597        F604   1.359       .  S
C598        C599   1.408       .  A
C598        F603   1.358       .  S
C599        C600   1.414       .  A
C600        F601   1.357       .  S
C605        C606   1.405       .  A
C605        C610   1.405       .  A
C605        F612   1.357       .  S
C606        C607   1.400       .  A
C607        C608   1.395       .  A
C607        F614   1.358       .  S
C608        C609   1.416       .  A
C608        F613   1.358       .  S
C609        C610   1.412       .  A
C610        F611   1.357       .  S
C615        C616   1.400       .  A
C615        C620   1.393       .  A
C615        F622   1.358       .  S
C616        C617   1.402       .  A
C617        C618   1.394       .  A
C617        F624   1.358       .  S
C618        C619   1.405       .  A
C618        F623   1.358       .  S
C619        C620   1.404       .  A
C620        F621   1.358       .  S
C625        C626   1.401       .  A
C625        C630   1.396       .  A
C625        F632   1.358       .  S
C626        C627   1.403       .  A
C627        C628   1.398       .  A
C627        F634   1.358       .  S
C628        C629   1.412       .  A
C628        F633   1.358       .  S
C629        C630   1.410       .  A
C630        F631   1.357       .  S
C635        C636   1.408       .  A
C635        C640   1.400       .  A
C635        F642   1.358       .  S
C636        C637   1.407       .  A
C637        C638   1.390       .  A
C637        F644   1.358       .  S
C638        C639   1.399       .  A
C638        F643   1.358       .  S
C639        C640   1.402       .  A
C640        F641   1.358       .  S
O645       Ni651   1.911       .  S
O645        C666   1.265       .  A
O646       Ni669   1.880       .  S
O646        C655   1.266       .  A
O647       Ni651   1.887       .  S
O647       Ni669   1.881   1_554  S
O647       Ni663   1.917       .  S
O647        H670   0.965       .  S
C648        O665   1.281       .  A
C648        O657   1.283       .  A
C648       C1233   1.467       .  S
O649       Ni668   1.948       .  S
O649        C655   1.278       .  A
O650       Ni668   1.920   1_554  S
O650        C652   1.270       .  A
Ni651       O654   1.913       .  S
Ni651       O656   1.904       .  S
C652        O662   1.270       .  A
C652       C1240   1.483       .  S
O653       Ni669   1.927   1_554  S
O653        C659   1.278       .  A
O654        C659   1.277       .  A
C655       C1283   1.460       .  S
O656        C658   1.264   1_554  A
O657       Ni668   1.937       .  S
C658        O664   1.272       .  A
C658       C1253   1.492       .  S
C659       C1273   1.482       .  S
H660        O661   0.966       .  S
O661       Ni669   1.891       .  S
O661       Ni663   1.890   1_556  S
O661       Ni668   1.889       .  S
O662       Ni663   1.925       .  S
Ni663       O667   1.915       .  S
Ni663       O665   1.913   1_554  S
O664       Ni669   1.938       .  S
C666        O667   1.269       .  A
C666       C1260   1.453       .  S
O671       Ni677   1.941       .  S
O671        C692   1.279       .  A
O672       Ni695   1.924       .  S
O672        C681   1.270       .  A
O673       Ni677   1.891       .  S
O673       Ni695   1.898       .  S
O673       Ni689   1.903       .  S
O673        H696   0.966       .  S
C674        O691   1.283       .  A
C674        O683   1.276       .  A
C674       C1190   1.484       .  S
O675       Ni694   1.903       .  S
O675        C681   1.263       .  A
O676       Ni694   1.903       .  S
O676        C678   1.264       .  A
Ni677       O680   1.923       .  S
Ni677       O682   1.919       .  S
C678        O688   1.272       .  A
C678       C1180   1.495       .  S
O679       Ni695   1.915       .  S
O679        C685   1.279       .  A
O680        C685   1.278       .  A
C681       C1170   1.460       .  S
O682        C684   1.273       .  A
O683       Ni694   1.903       .  S
C684        O690   1.274       .  A
C684       C1223   1.486       .  S
C685       C1200   1.460       .  S
H686        O687   0.966       .  S
O687       Ni695   1.914       .  S
O687       Ni689   1.882       .  S
O687       Ni694   1.885       .  S
O688       Ni689   1.940       .  S
Ni689       O693   1.888       .  S
Ni689       O691   1.939       .  S
O690       Ni695   1.937       .  S
C692        O693   1.268       .  A
C692       C1210   1.475       .  S
N697        C702   1.352       .  A
N697        H729   1.039       .  S
N698        C705   1.346       .  A
N698        C706   1.347       .  A
N699        C704   1.349       .  A
N699        H730   1.039       .  S
N700        C707   1.350       .  A
N700        C708   1.350       .  A
C701        C709   1.385       .  A
C701        C717   1.417       .  A
C702        C718   1.421       .  A
C702        C710   1.387       .  A
C703        C711   1.385       .  A
C703        C720   1.410       .  A
C704        C719   1.414       .  A
C704        C712   1.387       .  A
C705        C717   1.404       .  A
C705        C713   1.385       .  A
C706        C720   1.402       .  A
C706        C714   1.384       .  A
C707        C715   1.386       .  A
C707        C718   1.414       .  A
C708        C716   1.385       .  A
C708        C719   1.412       .  A
C709        H721   1.081       .  S
C710        H722   1.081       .  S
C711        H723   1.081       .  S
C712        H724   1.081       .  S
C713        C714   1.374       .  A
C713        H725   1.082       .  S
C714        H726   1.082       .  S
C715        C716   1.378       .  A
C715       H2015   1.082       .  S
C716        H728   1.082       .  S
C717        C827   1.488       .  S
C718        C802   1.494       .  S
C719        C843   1.487       .  S
C720        C818   1.481       .  S
H727       C2003   1.082       .  S
N731        C736   1.349       .  A
N731        C735   1.347       .  A
N731        H763   1.038       .  S
N732        C739   1.346       .  A
N732        C740   1.347       .  A
N733        C738   1.349       .  A
N733        C737   1.350       .  A
N733        H764   1.039       .  S
N734        C741   1.348       .  A
N734        C742   1.347       .  A
C735        C743   1.386       .  A
C735        C751   1.409       .  A
C736        C752   1.410       .  A
C736        C744   1.386       .  A
C737        C745   1.386       .  A
C737        C754   1.412       .  A
C738        C753   1.412       .  A
C738        C746   1.386       .  A
C739        C751   1.405       .  A
C739        C747   1.386       .  A
C740        C754   1.404       .  A
C740        C748   1.385       .  A
C741        C749   1.385       .  A
C741        C752   1.407       .  A
C742        C750   1.386       .  A
C742        C753   1.407       .  A
C743        C744   1.380       .  A
C743        H755   1.081       .  S
C744        H756   1.081       .  S
C745        C746   1.381       .  A
C745        H757   1.081       .  S
C746        H758   1.081       .  S
C747        C748   1.373       .  A
C747        H759   1.082       .  S
C748        H760   1.082       .  S
C749        C750   1.375       .  A
C749        H761   1.082       .  S
C750        H762   1.082       .  S
C751        C803   1.474       .  S
C752        C811   1.482       .  S
C753        C834   1.482       .  S
C754        C842   1.482       .  S
N765        C770   1.354       .  A
N765       C2057   1.352   1_455  A
N765        H797   1.039       .  S
N766        C773   1.350       .  A
N766        C774   1.352       .  A
N767        C772   1.351       .  A
N767       C2059   1.354   1_455  A
N767        H798   1.040       .  S
N768        C775   1.350       .  A
N768        C776   1.348       .  A
C769       N2053   1.352       .  A
C769        C777   1.386       .  A
C769        C785   1.416       .  A
C770        C786   1.418       .  A
C770        C778   1.386       .  A
C771       N2055   1.354       .  A
C771        C779   1.385       .  A
C771        C788   1.416       .  A
C772        C787   1.417       .  A
C772        C780   1.387       .  A
C773        C785   1.414       .  A
C773        C781   1.386       .  A
C774        C788   1.412       .  A
C774        C782   1.384       .  A
C775        C783   1.385       .  A
C775        C786   1.410       .  A
C776        C784   1.386       .  A
C776        C787   1.410       .  A
C777       C2066   1.382       .  A
C777        H789   1.081       .  S
C778       C2065   1.382   1_455  A
C778        H790   1.081       .  S
C779       C2068   1.382       .  A
C779        H791   1.081       .  S
C780       C2067   1.382   1_455  A
C780        H792   1.081       .  S
C781        C782   1.378       .  A
C781        H793   1.082       .  S
C782        H794   1.082       .  S
C783        C784   1.376       .  A
C785        C819   1.491       .  S
C786        C835   1.493       .  S
C787        C810   1.485       .  S
C788        C826   1.498       .  S
C799       C1163   1.475       .  S
C799       C2088   1.408   1_455  A
C799        C804   1.394       .  A
C800       C1173   1.471       .  S
C800       C2087   1.408       .  A
C800        C801   1.406       .  A
C801        C802   1.402       .  A
C801        H806   1.084       .  S
C802       C2091   1.417       .  A
C803       C2090   1.417   1_455  A
C803        C804   1.397       .  A
C804        H805   1.085       .  S
C807       C1193   1.474       .  S
C807        C812   1.397       .  A
C808       C1150   1.477       .  S
C808        C809   1.402       .  A
C809        C810   1.401       .  A
C809        H814   1.084       .  S
C811        C812   1.395       .  A
C812        H813   1.085       .  S
C815       C1280   1.481       .  S
C815        C816   1.421       .  A
C815        C820   1.407       .  A
C816       C1143   1.495       .  S
C816        C817   1.405       .  A
C817        C818   1.399       .  A
C817        H822   1.084       .  S
C818        C819   1.414       .  A
C819        C820   1.397       .  A
C820        H821   1.085       .  S
C823       C1133   1.490       .  S
C823        C824   1.423       .  A
C823        C828   1.402       .  A
C824       C1220   1.501       .  S
C824        C825   1.414       .  A
C825        C826   1.410       .  A
C825        H830   1.084       .  S
C826        C827   1.419       .  A
C827        C828   1.397       .  A
C828        H829   1.085       .  S
C831       C1120   1.475       .  S
C831        C836   1.404       .  A
C832       C1230   1.478       .  S
C832        C833   1.400       .  A
C833        C834   1.400       .  A
C833        H838   1.084       .  S
C835        C836   1.403       .  A
C836        H837   1.084       .  S
C839       C1250   1.482       .  S
C839       C2128   1.413       .  A
C839        C844   1.405       .  A
C840       C1110   1.475       .  S
C840       C2127   1.413   1_455  A
C840        C841   1.397       .  A
C841        C842   1.393       .  A
C841        H846   1.085       .  S
C842       C2131   1.416   1_455  A
C843       C2130   1.416       .  A
C843        C844   1.404       .  A
C844        H845   1.084       .  S
O847       Ni853   1.905       .  S
O847        C868   1.263       .  A
O848       Ni871   1.898       .  S
O848        C857   1.270       .  A
O849       Ni853   1.886       .  S
O849       Ni871   1.884       .  S
O849       Ni865   1.917       .  S
O849        H872   0.966       .  S
C850        O867   1.280       .  A
C850        O859   1.278       .  A
C850       C1160   1.463       .  S
O851       Ni870   1.942       .  S
O851        C857   1.279       .  A
O852       Ni870   1.917       .  S
O852        C854   1.273       .  A
Ni853       O856   1.906       .  S
Ni853       O858   1.902       .  S
C854        O864   1.273       .  A
C854       C1080   1.484       .  S
O855       Ni871   1.940       .  S
O855        C861   1.283       .  A
O856        C861   1.277       .  A
C857       C1130   1.481       .  S
O858        C860   1.263       .  A
O859       Ni870   1.925       .  S
C860        O866   1.271       .  A
C860       C1153   1.490       .  S
C861       C1100   1.485       .  S
H862        O863   0.966       .  S
O863       Ni871   1.906       .  S
O863       Ni865   1.901       .  S
O863       Ni870   1.889       .  S
O864       Ni865   1.935       .  S
Ni865       O869   1.930       .  S
Ni865       O867   1.919       .  S
O866       Ni871   1.937       .  S
C868        O869   1.272       .  A
C868       C1090   1.465       .  S
O873       Ni879   1.951       .  S
O873        C894   1.279       .  A
O874       Ni897   1.929       .  S
O874        C883   1.272       .  A
O875       Ni879   1.890       .  S
O875       Ni897   1.896   1_554  S
O875       Ni891   1.891       .  S
O875        H898   0.966       .  S
C876        O893   1.278       .  A
C876        O885   1.277       .  A
C876       C1113   1.478       .  S
O877       Ni896   1.906       .  S
O877        C883   1.264       .  A
O878       Ni896   1.904       .  S
O878        C880   1.265   1_556  A
Ni879       O882   1.934       .  S
Ni879       O884   1.921   1_554  S
C880        O890   1.273       .  A
C880       C1060   1.494       .  S
O881       Ni897   1.915   1_554  S
O881        C887   1.283       .  A
O882        C887   1.283       .  A
C883       C1123   1.463       .  S
O884        C886   1.271       .  A
O885       Ni896   1.912       .  S
C886        O892   1.269       .  A
C886       C1140   1.481       .  S
C887       C1073   1.471       .  S
H888        O889   0.966       .  S
O889       Ni897   1.917       .  S
O889       Ni891   1.884   1_556  S
O889       Ni896   1.887       .  S
O890       Ni891   1.939       .  S
Ni891       O895   1.891       .  S
Ni891       O893   1.925   1_554  S
O892       Ni897   1.921       .  S
C894        O895   1.268       .  A
C894       C1050   1.472       .  S
N899        C904   1.353       .  A
N899       C2191   1.353       .  A
N899        H931   1.039       .  S
N900        C907   1.351       .  A
N900        C908   1.351       .  A
N901        C906   1.352       .  A
N901       C2193   1.353       .  A
N901        H932   1.040       .  S
N902        C909   1.351       .  A
N902        C910   1.351       .  A
C903       N2187   1.353   1_455  A
C903        C911   1.385       .  A
C903        C919   1.416       .  A
C904        C920   1.419       .  A
C904        C912   1.387       .  A
C905       N2189   1.353   1_455  A
C905        C913   1.386       .  A
C905        C922   1.414       .  A
C906        C921   1.417       .  A
C906        C914   1.387       .  A
C907        C919   1.414       .  A
C907        C915   1.385       .  A
C908        C922   1.412       .  A
C908        C916   1.385       .  A
C909        C917   1.386       .  A
C909        C920   1.415       .  A
C910        C918   1.385       .  A
C910        C921   1.414       .  A
C911       C2200   1.382   1_455  A
C911        H923   1.081       .  S
C912       C2199   1.382       .  A
C912        H924   1.080       .  S
C913       C2202   1.381   1_455  A
C913        H925   1.081       .  S
C914       C2201   1.381       .  A
C914        H926   1.081       .  S
C915        C916   1.378       .  A
C915        H927   1.082       .  S
C916        H928   1.082       .  S
C917        C918   1.378       .  A
C919       C1028   1.495       .  S
C920       C1013   1.496       .  S
C921        C971   1.493       .  S
C922       C1020   1.493       .  S
N933        C938   1.350       .  A
N933        C937   1.349       .  A
N933        H965   1.039       .  S
N934        C941   1.346       .  A
N934        C942   1.347       .  A
N935        C940   1.347       .  A
N935        C939   1.348       .  A
N935        H966   1.039       .  S
N936        C943   1.346       .  A
N936        C944   1.346       .  A
C937        C945   1.386       .  A
C937        C953   1.411       .  A
C938        C954   1.412       .  A
C938        C946   1.386       .  A
C939        C947   1.386       .  A
C939        C956   1.408       .  A
C940        C955   1.408       .  A
C940        C948   1.386       .  A
C941        C953   1.405       .  A
C941        C949   1.386       .  A
C942        C956   1.405       .  A
C942        C950   1.384       .  A
C943        C951   1.385       .  A
C943        C954   1.405       .  A
C944        C952   1.386       .  A
C944        C955   1.405       .  A
C945        C946   1.381       .  A
C945        H957   1.081       .  S
C946        H958   1.081       .  S
C947        C948   1.379       .  A
C947        H959   1.081       .  S
C948        H960   1.080       .  S
C949        C950   1.375       .  A
C949        H961   1.082       .  S
C950        H962   1.082       .  S
C951        C952   1.375       .  A
C951        H963   1.082       .  S
C952        H964   1.082       .  S
C953       C1036   1.480       .  S
C954        C970   1.481       .  S
C955       C1012   1.474       .  S
C956       C1045   1.480       .  S
C967       C1183   1.485       .  S
C967        C972   1.409       .  A
C968       C1103   1.477       .  S
C968        C969   1.397       .  A
C969        C970   1.394       .  A
C969        H974   1.085       .  S
C971        C972   1.406       .  A
C972        H973   1.084       .  S
N975        C980   1.353       .  A
N975       H1007   1.038       .  S
N976        C983   1.346       .  A
N976        C984   1.347       .  A
N977        C982   1.351       .  A
N977       H1008   1.040       .  S
N978        C985   1.351       .  A
N978        C986   1.349       .  A
C979        C987   1.385       .  A
C979        C995   1.416       .  A
C980        C996   1.420       .  A
C980        C988   1.387       .  A
C981        C989   1.385       .  A
C981        C998   1.414       .  A
C982        C997   1.417       .  A
C982        C990   1.387       .  A
C983        C995   1.406       .  A
C983        C991   1.386       .  A
C984        C998   1.403       .  A
C984        C992   1.384       .  A
C985        C993   1.386       .  A
C985        C996   1.414       .  A
C986        C994   1.386       .  A
C986        C997   1.412       .  A
C987        H999   1.081       .  S
C988       H1000   1.081       .  S
C989       H1001   1.081       .  S
C990       H1002   1.081       .  S
C991        C992   1.375       .  A
C991       H1003   1.082       .  S
C992       H1004   1.082       .  S
C993        C994   1.377       .  A
C993       H2293   1.082       .  S
C994       H1006   1.082       .  S
C995       C1021   1.485       .  S
C996       C1037   1.494       .  S
C997       C1044   1.487       .  S
C998       C1029   1.487       .  S
H1005      C2281   1.082       .  S
C1009      C1263   1.472       .  S
C1009      C1014   1.409       .  A
C1010      C1070   1.483       .  S
C1010      C1011   1.398       .  A
C1011      C1012   1.396       .  A
C1011      H1016   1.085       .  S
C1013      C1014   1.400       .  A
C1014      H1015   1.084       .  S
C1017      C1213   1.484       .  S
C1017      C1018   1.422       .  A
C1017      C1022   1.400       .  A
C1018      C1083   1.499       .  S
C1018      C1019   1.412       .  A
C1019      C1020   1.408       .  A
C1019      H1024   1.083       .  S
C1020      C1021   1.416       .  A
C1021      C1022   1.393       .  A
C1022      H1023   1.085       .  S
C1025      C1243   1.497       .  S
C1025      C1026   1.427       .  A
C1025      C1030   1.409       .  A
C1026      C1053   1.495       .  S
C1026      C1027   1.412       .  A
C1027      C1028   1.400       .  A
C1027      H1032   1.084       .  S
C1028      C1029   1.414       .  A
C1029      C1030   1.399       .  A
C1030      H1031   1.084       .  S
C1033      C1093   1.475       .  S
C1033      C2322   1.406   1_455  A
C1033      C1038   1.405       .  A
C1034      C1203   1.473       .  S
C1034      C2321   1.406       .  A
C1034      C1035   1.397       .  A
C1035      C1036   1.398       .  A
C1035      H1040   1.085       .  S
C1036      C2325   1.419       .  A
C1037      C2324   1.419   1_455  A
C1037      C1038   1.404       .  A
C1038      H1039   1.084       .  S
C1041      C1270   1.475       .  S
C1041      C2330   1.415       .  A
C1041      C1046   1.395       .  A
C1042      C1063   1.483       .  S
C1042      C2329   1.415   1_455  A
C1042      C1043   1.406       .  A
C1043      C1044   1.404       .  A
C1043      H1048   1.084       .  S
C1044      C2333   1.415   1_455  A
C1045      C2332   1.415       .  A
C1045      C1046   1.393       .  A
C1046      H1047   1.085       .  S
C1049      C1050   1.404       .  A
C1049      C1054   1.403       .  A
C1049      F1056   1.358       .  S
C1050      C1051   1.402       .  A
C1051      C1052   1.395       .  A
C1051      F1058   1.358       .  S
C1052      C1053   1.411       .  A
C1052      F1057   1.358       .  S
C1053      C1054   1.412       .  A
C1054      F1055   1.357       .  S
C1059      C1060   1.417       .  A
C1059      C1064   1.395       .  A
C1059      F1066   1.358   1_554  S
C1060      C1061   1.412       .  A
C1061      C1062   1.404       .  A
C1061      F1068   1.357       .  S
C1062      C1063   1.405       .  A
C1062      F1067   1.358       .  S
C1063      C1064   1.400       .  A
C1064      F1065   1.358       .  S
C1069      C1070   1.409       .  A
C1069      C1074   1.399       .  A
C1069      F1076   1.357       .  S
C1070      C1071   1.403       .  A
C1071      C1072   1.393       .  A
C1071      F1078   1.358       .  S
C1072      C1073   1.408       .  A
C1072      F1077   1.359       .  S
C1073      C1074   1.403       .  A
C1074      F1075   1.358       .  S
C1079      C1080   1.407       .  A
C1079      C1084   1.406       .  A
C1079      F1086   1.358       .  S
C1080      C1081   1.407       .  A
C1081      C1082   1.400       .  A
C1081      F1088   1.358       .  S
C1082      C1083   1.409       .  A
C1082      F1087   1.358       .  S
C1083      C1084   1.411       .  A
C1084      F1085   1.358       .  S
C1089      C1090   1.405       .  A
C1089      C1094   1.392       .  A
C1089      F1096   1.358       .  S
C1090      C1091   1.405       .  A
C1091      C1092   1.402       .  A
C1091      F1098   1.358       .  S
C1092      C1093   1.405       .  A
C1092      F1097   1.358       .  S
C1093      C1094   1.401       .  A
C1094      F1095   1.357       .  S
C1099      C1100   1.410       .  A
C1099      C1104   1.398       .  A
C1099      F1106   1.357       .  S
C1100      C1101   1.413       .  A
C1101      C1102   1.397       .  A
C1101      F1108   1.358       .  S
C1102      C1103   1.401       .  A
C1102      F1107   1.358       .  S
C1103      C1104   1.403       .  A
C1109      C1110   1.402       .  A
C1109      C1114   1.395       .  A
C1109      F1116   1.358       .  S
C1110      C1111   1.403       .  A
C1111      C1112   1.396       .  A
C1111      F2406   1.358       .  S
C1112      C1113   1.409       .  A
C1112      F1117   1.358       .  S
C1113      C1114   1.410       .  A
C1114      F1115   1.358       .  S
F1118      C2399   1.358       .  S
C1119      C1120   1.402       .  A
C1119      C1124   1.393       .  A
C1120      C1121   1.405       .  A
C1121      C1122   1.401       .  A
C1121      F1128   1.358       .  S
C1122      C1123   1.405       .  A
C1122      F1127   1.358       .  S
C1123      C1124   1.405       .  A
C1124      F1125   1.358       .  S
C1129      C1130   1.408       .  A
C1129      C1134   1.400       .  A
C1129      F1136   1.358       .  S
C1130      C1131   1.408       .  A
C1131      C1132   1.399       .  A
C1131      F1138   1.358       .  S
C1132      C1133   1.406       .  A
C1132      F1137   1.358       .  S
C1133      C1134   1.408       .  A
C1134      F1135   1.358       .  S
C1139      C1140   1.404       .  A
C1139      C1144   1.404       .  A
C1139      F1146   1.357       .  S
C1140      C1141   1.410       .  A
C1141      C1142   1.395       .  A
C1141      F1148   1.359       .  S
C1142      C1143   1.406       .  A
C1142      F1147   1.359       .  S
C1143      C1144   1.413       .  A
C1144      F1145   1.356       .  S
C1149      C1150   1.397       .  A
C1149      C1154   1.392       .  A
C1149      F1156   1.358       .  S
C1150      C1151   1.405       .  A
C1151      C1152   1.405       .  A
C1151      F1158   1.358       .  S
C1152      C1153   1.412       .  A
C1152      F1157   1.358       .  S
C1153      C1154   1.415       .  A
C1154      F1155   1.358       .  S
C1159      C1160   1.405       .  A
C1159      C1164   1.395       .  A
C1159      F1166   1.358       .  S
C1160      C1161   1.402       .  A
C1161      C1162   1.399       .  A
C1161      F1168   1.358       .  S
C1162      C1163   1.405       .  A
C1162      F1167   1.358       .  S
C1163      C1164   1.402       .  A
C1164      F1165   1.358       .  S
C1169      C1170   1.404       .  A
C1169      C1174   1.390       .  A
C1169      F1176   1.359       .  S
C1170      C1171   1.404       .  A
C1171      C1172   1.400       .  A
C1171      F1178   1.358       .  S
C1172      C1173   1.405       .  A
C1172      F1177   1.358       .  S
C1173      C1174   1.401       .  A
C1174      F1175   1.357       .  S
C1179      C1180   1.416       .  A
C1179      C1184   1.395       .  A
C1179      F1186   1.358       .  S
C1180      C1181   1.413       .  A
C1181      C1182   1.405       .  A
C1181      F1188   1.357       .  S
C1182      C1183   1.405       .  A
C1182      F1187   1.358       .  S
C1183      C1184   1.401       .  A
C1184      F1185   1.358       .  S
C1189      C1190   1.413       .  A
C1189      C1194   1.393       .  A
C1189      F1196   1.358       .  S
C1190      C1191   1.411       .  A
C1191      C1192   1.399       .  A
C1191      F1198   1.357       .  S
C1192      C1193   1.402       .  A
C1192      F1197   1.358       .  S
C1193      C1194   1.400       .  A
C1194      F1195   1.358       .  S
C1199      C1200   1.404       .  A
C1199      C1204   1.395       .  A
C1199      F1206   1.358       .  S
C1200      C1201   1.402       .  A
C1201      C1202   1.398       .  A
C1201      F1208   1.358       .  S
C1202      C1203   1.405       .  A
C1202      F1207   1.358       .  S
C1203      C1204   1.402       .  A
C1204      F1205   1.358       .  S
C1209      C1210   1.407       .  A
C1209      C1214   1.397       .  A
C1209      F1216   1.358       .  S
C1210      C1211   1.407       .  A
C1211      C1212   1.395       .  A
C1211      F1218   1.357       .  S
C1212      C1213   1.406       .  A
C1212      F1217   1.358       .  S
C1213      C1214   1.406       .  A
C1214      F1215   1.358       .  S
C1219      C1220   1.411       .  A
C1219      C1224   1.408       .  A
C1219      F1226   1.358       .  S
C1220      C1221   1.408       .  A
C1221      C1222   1.400       .  A
C1221      F1228   1.358       .  S
C1222      C1223   1.407       .  A
C1222      F1227   1.358       .  S
C1223      C1224   1.408       .  A
C1224      F1225   1.358       .  S
C1229      C1230   1.407       .  A
C1229      C1234   1.399       .  A
C1229      F1236   1.357       .  S
C1230      C1231   1.402       .  A
C1231      C1232   1.395       .  A
C1231      F1238   1.358       .  S
C1232      C1233   1.406       .  A
C1232      F1237   1.358       .  S
C1233      C1234   1.404       .  A
C1234      F1235   1.358       .  S
C1239      C1240   1.406       .  A
C1239      C1244   1.406       .  A
C1239      F1246   1.357       .  S
C1240      C1241   1.408       .  A
C1241      C1242   1.394       .  A
C1241      F1248   1.359       .  S
C1242      C1243   1.408       .  A
C1242      F1247   1.358       .  S
C1243      C1244   1.413       .  A
C1244      F1245   1.357       .  S
C1249      C1250   1.405       .  A
C1249      C1254   1.405       .  A
C1249      F1256   1.357       .  S
C1250      C1251   1.400       .  A
C1251      C1252   1.394       .  A
C1251      F1258   1.358       .  S
C1252      C1253   1.416       .  A
C1252      F1257   1.358       .  S
C1253      C1254   1.412       .  A
C1254      F1255   1.357       .  S
C1259      C1260   1.401       .  A
C1259      C1264   1.393       .  A
C1259      F1266   1.358       .  S
C1260      C1261   1.403       .  A
C1261      C1262   1.395       .  A
C1261      F1268   1.358       .  S
C1262      C1263   1.406       .  A
C1262      F1267   1.358       .  S
C1263      C1264   1.404       .  A
C1264      F1265   1.358       .  S
C1269      C1270   1.401       .  A
C1269      C1274   1.395       .  A
C1269      F1276   1.358       .  S
C1270      C1271   1.403       .  A
C1271      C1272   1.397       .  A
C1271      F1278   1.358       .  S
C1272      C1273   1.412       .  A
C1272      F1277   1.358       .  S
C1273      C1274   1.410       .  A
C1274      F1275   1.358       .  S
C1279      C1280   1.409       .  A
C1279      C1284   1.400       .  A
C1279      F1286   1.358       .  S
C1280      C1281   1.407       .  A
C1281      C1282   1.391       .  A
C1281      F1288   1.358       .  S
C1282      C1283   1.400       .  A
C1282      F1287   1.358       .  S
C1283      C1284   1.403       .  A
C1284      F1285   1.358       .  S
O1289     Ni1295   1.911       .  S
O1289      C1310   1.265       .  A
O1290     Ni1313   1.879       .  S
O1290      C1299   1.265       .  A
O1291     Ni1295   1.888       .  S
O1291     Ni1313   1.881   1_554  S
O1291     Ni1307   1.919       .  S
O1291      H1314   0.965       .  S
C1292      O1309   1.281       .  A
C1292      O1301   1.283       .  A
C1292      C1877   1.468       .  S
O1293     Ni1312   1.947       .  S
O1293      C1299   1.278       .  A
O1294     Ni1312   1.920   1_554  S
O1294      C1296   1.270       .  A
Ni1295     O1298   1.915       .  S
Ni1295     O1300   1.904       .  S
C1296      O1306   1.270       .  A
C1296      C1884   1.484       .  S
O1297     Ni1313   1.928   1_554  S
O1297      C1303   1.278       .  A
O1298      C1303   1.278       .  A
C1299      C1927   1.458       .  S
O1300      C1302   1.264   1_554  A
O1301     Ni1312   1.936       .  S
C1302      O1308   1.273       .  A
C1302      C1897   1.493       .  S
C1303      C1917   1.484       .  S
H1304      O1305   0.966       .  S
O1305     Ni1313   1.892       .  S
O1305     Ni1307   1.889   1_556  S
O1305     Ni1312   1.889       .  S
O1306     Ni1307   1.926       .  S
Ni1307     O1311   1.914       .  S
Ni1307     O1309   1.915   1_554  S
O1308     Ni1313   1.938       .  S
C1310      O1311   1.268       .  A
C1310      C1904   1.452       .  S
O1315     Ni1321   1.941       .  S
O1315      C1336   1.279       .  A
O1316     Ni1339   1.923       .  S
O1316      C1325   1.270       .  A
O1317     Ni1321   1.892       .  S
O1317     Ni1339   1.898       .  S
O1317     Ni1333   1.902       .  S
O1317      H1340   0.967       .  S
C1318      O1335   1.282       .  A
C1318      O1327   1.276       .  A
C1318      C1834   1.485       .  S
O1319     Ni1338   1.903       .  S
O1319      C1325   1.263       .  A
O1320     Ni1338   1.903       .  S
O1320      C1322   1.264       .  A
Ni1321     O1324   1.922       .  S
Ni1321     O1326   1.919       .  S
C1322      O1332   1.272       .  A
C1322      C1824   1.497       .  S
O1323     Ni1339   1.915       .  S
O1323      C1329   1.279       .  A
O1324      C1329   1.278       .  A
C1325      C1814   1.459       .  S
O1326      C1328   1.273       .  A
O1327     Ni1338   1.903       .  S
C1328      O1334   1.273       .  A
C1328      C1867   1.486       .  S
C1329      C1844   1.461       .  S
H1330      O1331   0.966       .  S
O1331     Ni1339   1.914       .  S
O1331     Ni1333   1.882       .  S
O1331     Ni1338   1.884       .  S
O1332     Ni1333   1.942       .  S
Ni1333     O1337   1.885       .  S
Ni1333     O1335   1.940       .  S
O1334     Ni1339   1.937       .  S
C1336      O1337   1.267       .  A
C1336      C1854   1.473       .  S
N1341      C1346   1.352       .  A
N1341      C1989   1.354   1_545  A
N1341      H1373   1.039       .  S
N1342      C1349   1.346       .  A
N1342      C1350   1.347       .  A
N1343      C1348   1.349       .  A
N1343      C1991   1.351   1_545  A
N1343      H1374   1.040       .  S
N1344      C1351   1.350       .  A
N1344      C1352   1.350       .  A
C1345      N1985   1.354       .  A
C1345      C1353   1.385       .  A
C1345      C1361   1.418       .  A
C1346      C1362   1.421       .  A
C1346      C1354   1.388       .  A
C1347      N1987   1.351       .  A
C1347      C1355   1.385       .  A
C1347      C1364   1.411       .  A
C1348      C1363   1.414       .  A
C1348      C1356   1.387       .  A
C1349      C1361   1.405       .  A
C1349      C1357   1.385       .  A
C1350      C1364   1.403       .  A
C1350      C1358   1.384       .  A
C1351      C1359   1.387       .  A
C1351      C1362   1.415       .  A
C1352      C1360   1.385       .  A
C1352      C1363   1.413       .  A
C1353      C1998   1.384       .  A
C1353      H1365   1.081       .  S
C1354      C1997   1.384   1_545  A
C1354      H1366   1.081       .  S
C1355      C2000   1.381       .  A
C1355      H1367   1.081       .  S
C1356      C1999   1.380   1_545  A
C1356      H1368   1.081       .  S
C1357      C1358   1.374       .  A
C1357      H1369   1.082       .  S
C1358      H1370   1.082       .  S
C1359      C1360   1.378       .  A
C1360      H1372   1.082       .  S
C1361      C1471   1.489       .  S
C1362      C1446   1.494       .  S
C1363      C1487   1.487       .  S
C1364      C1462   1.481       .  S
N1375      C1380   1.348       .  A
N1375      C1379   1.347       .  A
N1375      H1407   1.038       .  S
N1376      C1383   1.346       .  A
N1376      C1384   1.346       .  A
N1377      C1382   1.350       .  A
N1377      C1381   1.350       .  A
N1377      H1408   1.038       .  S
N1378      C1385   1.348       .  A
N1378      C1386   1.347       .  A
C1379      C1387   1.386       .  A
C1379      C1395   1.408       .  A
C1380      C1396   1.410       .  A
C1380      C1388   1.386       .  A
C1381      C1389   1.386       .  A
C1381      C1398   1.413       .  A
C1382      C1397   1.413       .  A
C1382      C1390   1.386       .  A
C1383      C1395   1.405       .  A
C1383      C1391   1.386       .  A
C1384      C1398   1.404       .  A
C1384      C1392   1.385       .  A
C1385      C1393   1.385       .  A
C1385      C1396   1.407       .  A
C1386      C1394   1.385       .  A
C1386      C1397   1.408       .  A
C1387      C1388   1.380       .  A
C1387      H1399   1.081       .  S
C1388      H1400   1.081       .  S
C1389      C1390   1.382       .  A
C1389      H1401   1.081       .  S
C1390      H1402   1.081       .  S
C1391      C1392   1.372       .  A
C1391      H1403   1.082       .  S
C1392      H1404   1.082       .  S
C1393      C1394   1.375       .  A
C1393      H1405   1.082       .  S
C1394      H1406   1.082       .  S
C1395      C1447   1.474       .  S
C1396      C1455   1.481       .  S
C1397      C1478   1.483       .  S
C1398      C1486   1.482       .  S
N1409      C1414   1.353       .  A
N1409      H1441   1.039       .  S
N1410      C1417   1.349       .  A
N1410      C1418   1.352       .  A
N1411      C1416   1.351       .  A
N1411      H1442   1.040       .  S
N1412      C1419   1.350       .  A
N1412      C1420   1.348       .  A
C1413      C1421   1.386       .  A
C1413      C1429   1.415       .  A
C1414      C1430   1.417       .  A
C1414      C1422   1.386       .  A
C1415      C1423   1.385       .  A
C1415      C1432   1.416       .  A
C1416      C1431   1.417       .  A
C1416      C1424   1.387       .  A
C1417      C1429   1.413       .  A
C1417      C1425   1.386       .  A
C1418      C1432   1.412       .  A
C1418      C1426   1.384       .  A
C1419      C1427   1.385       .  A
C1419      C1430   1.410       .  A
C1420      C1428   1.386       .  A
C1420      C1431   1.410       .  A
C1421      H1433   1.081       .  S
C1422      H1434   1.081       .  S
C1423      H1435   1.081       .  S
C1424      H1436   1.081       .  S
C1425      C1426   1.378       .  A
C1425      H1437   1.082       .  S
C1426      H1438   1.082       .  S
C1427      C1428   1.376       .  A
C1427      H2083   1.082       .  S
C1428      H2084   1.082       .  S
C1429      C1463   1.488       .  S
C1430      C1479   1.492       .  S
C1431      C1454   1.485       .  S
C1432      C1470   1.499       .  S
H1439      C2071   1.082       .  S
H1440      C2072   1.082       .  S
C1443      C1807   1.476       .  S
C1443      C1448   1.394       .  A
C1444      C1817   1.472       .  S
C1444      C1445   1.406       .  A
C1445      C1446   1.402       .  A
C1445      H1450   1.084       .  S
C1447      C1448   1.396       .  A
C1448      H1449   1.085       .  S
C1451      C1837   1.474       .  S
C1451      C2096   1.413   1_545  A
C1451      C1456   1.397       .  A
C1452      C1794   1.479       .  S
C1452      C2095   1.413       .  A
C1452      C1453   1.402       .  A
C1453      C1454   1.402       .  A
C1453      H1458   1.084       .  S
C1454      C2099   1.416       .  A
C1455      C2098   1.416   1_545  A
C1455      C1456   1.395       .  A
C1456      H1457   1.085       .  S
C1459      C1924   1.479       .  S
C1459      C1460   1.420       .  A
C1459      C1464   1.405       .  A
C1460      C1787   1.492       .  S
C1460      C1461   1.404       .  A
C1461      C1462   1.398       .  A
C1461      H1466   1.084       .  S
C1462      C1463   1.414       .  A
C1463      C1464   1.396       .  A
C1464      H1465   1.085       .  S
C1467      C1777   1.491       .  S
C1467      C1468   1.424       .  A
C1467      C1472   1.403       .  A
C1468      C1864   1.501       .  S
C1468      C1469   1.414       .  A
C1469      C1470   1.410       .  A
C1469      H1474   1.084       .  S
C1470      C1471   1.419       .  A
C1471      C1472   1.398       .  A
C1472      H1473   1.085       .  S
C1475      C1764   1.474       .  S
C1475      C2120   1.408       .  A
C1475      C1480   1.404       .  A
C1476      C1874   1.478       .  S
C1476      C2119   1.408   1_545  A
C1476      C1477   1.401       .  A
C1477      C1478   1.401       .  A
C1477      H1482   1.084       .  S
C1478      C2123   1.418   1_545  A
C1479      C2122   1.418       .  A
C1479      C1480   1.402       .  A
C1480      H1481   1.084       .  S
C1483      C1894   1.483       .  S
C1483      C1488   1.406       .  A
C1484      C1754   1.474       .  S
C1484      C1485   1.397       .  A
C1485      C1486   1.393       .  A
C1485      H1490   1.085       .  S
C1487      C1488   1.405       .  A
C1488      H1489   1.084       .  S
O1491     Ni1497   1.904       .  S
O1491      C1512   1.263       .  A
O1492     Ni1515   1.902       .  S
O1492      C1501   1.270       .  A
O1493     Ni1497   1.888       .  S
O1493     Ni1515   1.886       .  S
O1493     Ni1509   1.917       .  S
O1493      H1516   0.966       .  S
C1494      O1511   1.281       .  A
C1494      O1503   1.278       .  A
C1494      C1804   1.464       .  S
O1495     Ni1514   1.940       .  S
O1495      C1501   1.278       .  A
O1496     Ni1514   1.916       .  S
O1496      C1498   1.273       .  A
Ni1497     O1500   1.906       .  S
Ni1497     O1502   1.902       .  S
C1498      O1508   1.274       .  A
C1498      C1724   1.486       .  S
O1499     Ni1515   1.939       .  S
O1499      C1505   1.283       .  A
O1500      C1505   1.277       .  A
C1501      C1774   1.482       .  S
O1502      C1504   1.264       .  A
O1503     Ni1514   1.922       .  S
C1504      O1510   1.271       .  A
C1504      C1797   1.492       .  S
C1505      C1744   1.485       .  S
H1506      O1507   0.966       .  S
O1507     Ni1515   1.907       .  S
O1507     Ni1509   1.902       .  S
O1507     Ni1514   1.889       .  S
O1508     Ni1509   1.936       .  S
Ni1509     O1513   1.932       .  S
Ni1509     O1511   1.921       .  S
O1510     Ni1515   1.938       .  S
C1512      O1513   1.273       .  A
C1512      C1734   1.465       .  S
O1517     Ni1523   1.950       .  S
O1517      C1538   1.278       .  A
O1518     Ni1541   1.928       .  S
O1518      C1527   1.272       .  A
O1519     Ni1523   1.890       .  S
O1519     Ni1541   1.895   1_554  S
O1519     Ni1535   1.891       .  S
O1519      H1542   0.966       .  S
C1520      O1537   1.278       .  A
C1520      O1529   1.277       .  A
C1520      C1757   1.479       .  S
O1521     Ni1540   1.907       .  S
O1521      C1527   1.264       .  A
O1522     Ni1540   1.904       .  S
O1522      C1524   1.265   1_556  A
Ni1523     O1526   1.935       .  S
Ni1523     O1528   1.920   1_554  S
C1524      O1534   1.274       .  A
C1524      C1704   1.495       .  S
O1525     Ni1541   1.916   1_554  S
O1525      C1531   1.283       .  A
O1526      C1531   1.283       .  A
C1527      C1767   1.463       .  S
O1528      C1530   1.270       .  A
O1529     Ni1540   1.912       .  S
C1530      O1536   1.269       .  A
C1530      C1784   1.479       .  S
C1531      C1717   1.473       .  S
H1532      O1533   0.966       .  S
O1533     Ni1541   1.917       .  S
O1533     Ni1535   1.884   1_556  S
O1533     Ni1540   1.887       .  S
O1534     Ni1535   1.941       .  S
Ni1535     O1539   1.891       .  S
Ni1535     O1537   1.925   1_554  S
O1536     Ni1541   1.920       .  S
C1538      O1539   1.268       .  A
C1538      C1694   1.471       .  S
N1543      C1548   1.353       .  A
N1543      H1575   1.039       .  S
N1544      C1551   1.351       .  A
N1544      C1552   1.351       .  A
N1545      C1550   1.352       .  A
N1545      H1576   1.040       .  S
N1546      C1553   1.351       .  A
N1546      C1554   1.351       .  A
C1547      C1555   1.385       .  A
C1547      C1563   1.416       .  A
C1548      C1564   1.419       .  A
C1548      C1556   1.387       .  A
C1549      C1557   1.386       .  A
C1549      C1566   1.414       .  A
C1550      C1565   1.417       .  A
C1550      C1558   1.387       .  A
C1551      C1563   1.414       .  A
C1551      C1559   1.385       .  A
C1552      C1566   1.412       .  A
C1552      C1560   1.385       .  A
C1553      C1561   1.386       .  A
C1553      C1564   1.414       .  A
C1554      C1562   1.385       .  A
C1554      C1565   1.413       .  A
C1555      H1567   1.081       .  S
C1556      H1568   1.080       .  S
C1557      H1569   1.081       .  S
C1558      H1570   1.081       .  S
C1559      C1560   1.379       .  A
C1559      H1571   1.082       .  S
C1560      H1572   1.082       .  S
C1561      C1562   1.377       .  A
C1561      H2217   1.082       .  S
C1562      H2218   1.082       .  S
C1563      C1672   1.497       .  S
C1564      C1657   1.494       .  S
C1565      C1615   1.492       .  S
C1566      C1664   1.493       .  S
H1573      C2205   1.082       .  S
H1574      C2206   1.082       .  S
N1577      C1582   1.350       .  A
N1577      C1581   1.349       .  A
N1577      H1609   1.039       .  S
N1578      C1585   1.346       .  A
N1578      C1586   1.348       .  A
N1579      C1584   1.346       .  A
N1579      C1583   1.349       .  A
N1579      H1610   1.038       .  S
N1580      C1587   1.346       .  A
N1580      C1588   1.346       .  A
C1581      C1589   1.386       .  A
C1581      C1597   1.411       .  A
C1582      C1598   1.412       .  A
C1582      C1590   1.386       .  A
C1583      C1591   1.386       .  A
C1583      C1600   1.409       .  A
C1584      C1599   1.408       .  A
C1584      C1592   1.386       .  A
C1585      C1597   1.406       .  A
C1585      C1593   1.386       .  A
C1586      C1600   1.405       .  A
C1586      C1594   1.384       .  A
C1587      C1595   1.385       .  A
C1587      C1598   1.404       .  A
C1588      C1596   1.386       .  A
C1588      C1599   1.405       .  A
C1589      C1590   1.381       .  A
C1589      H1601   1.081       .  S
C1590      H1602   1.081       .  S
C1591      C1592   1.379       .  A
C1591      H1603   1.081       .  S
C1592      H1604   1.081       .  S
C1593      C1594   1.375       .  A
C1593      H1605   1.082       .  S
C1594      H1606   1.082       .  S
C1595      C1596   1.375       .  A
C1595      H1607   1.082       .  S
C1596      H1608   1.082       .  S
C1597      C1680   1.480       .  S
C1598      C1614   1.480       .  S
C1599      C1656   1.473       .  S
C1600      C1689   1.481       .  S
C1611      C1827   1.487       .  S
C1611      C2256   1.416   1_545  A
C1611      C1616   1.408       .  A
C1612      C1747   1.477       .  S
C1612      C2255   1.415       .  A
C1612      C1613   1.397       .  A
C1613      C1614   1.394       .  A
C1613      H1618   1.085       .  S
C1614      C2259   1.416       .  A
C1615      C2258   1.416   1_545  A
C1615      C1616   1.405       .  A
C1616      H1617   1.084       .  S
N1619      C1624   1.352       .  A
N1619      C2267   1.353       .  A
N1619      H1651   1.038       .  S
N1620      C1627   1.346       .  A
N1620      C1628   1.348       .  A
N1621      C1626   1.351       .  A
N1621      C2269   1.353       .  A
N1621      H1652   1.040       .  S
N1622      C1629   1.351       .  A
N1622      C1630   1.349       .  A
C1623      N2263   1.353   1_545  A
C1623      C1631   1.386       .  A
C1623      C1639   1.417       .  A
C1624      C1640   1.419       .  A
C1624      C1632   1.387       .  A
C1625      N2265   1.354   1_545  A
C1625      C1633   1.385       .  A
C1625      C1642   1.415       .  A
C1626      C1641   1.416       .  A
C1626      C1634   1.387       .  A
C1627      C1639   1.407       .  A
C1627      C1635   1.386       .  A
C1628      C1642   1.403       .  A
C1628      C1636   1.384       .  A
C1629      C1637   1.386       .  A
C1629      C1640   1.414       .  A
C1630      C1638   1.385       .  A
C1630      C1641   1.412       .  A
C1631      C2276   1.383   1_545  A
C1631      H1643   1.081       .  S
C1632      C2275   1.382       .  A
C1632      H1644   1.081       .  S
C1633      C2278   1.382   1_545  A
C1633      H1645   1.081       .  S
C1634      C2277   1.381       .  A
C1634      H1646   1.081       .  S
C1635      C1636   1.374       .  A
C1635      H1647   1.082       .  S
C1636      H1648   1.082       .  S
C1637      C1638   1.378       .  A
C1638      H1650   1.082       .  S
C1639      C1665   1.486       .  S
C1640      C1681   1.493       .  S
C1641      C1688   1.488       .  S
C1642      C1673   1.488       .  S
C1653      C1907   1.472       .  S
C1653      C2298   1.411   1_545  A
C1653      C1658   1.407       .  A
C1654      C1714   1.484       .  S
C1654      C2297   1.412       .  A
C1654      C1655   1.398       .  A
C1655      C1656   1.397       .  A
C1655      H1660   1.085       .  S
C1656      C2301   1.414       .  A
C1657      C2300   1.415   1_545  A
C1657      C1658   1.400       .  A
C1658      H1659   1.084       .  S
C1661      C1857   1.482       .  S
C1661      C1662   1.422       .  A
C1661      C1666   1.401       .  A
C1662      C1727   1.501       .  S
C1662      C1663   1.412       .  A
C1663      C1664   1.408       .  A
C1663      H1668   1.083       .  S
C1664      C1665   1.417       .  A
C1665      C1666   1.394       .  A
C1666      H1667   1.085       .  S
C1669      C1887   1.500       .  S
C1669      C1670   1.426       .  A
C1669      C1674   1.410       .  A
C1670      C1697   1.494       .  S
C1670      C1671   1.412       .  A
C1671      C1672   1.401       .  A
C1671      H1676   1.084       .  S
C1672      C1673   1.414       .  A
C1673      C1674   1.401       .  A
C1674      H1675   1.084       .  S
C1677      C1737   1.478       .  S
C1677      C1682   1.405       .  A
C1678      C1847   1.473       .  S
C1678      C1679   1.398       .  A
C1679      C1680   1.398       .  A
C1679      H1684   1.085       .  S
C1681      C1682   1.404       .  A
C1682      H1683   1.084       .  S
C1685      C1914   1.477       .  S
C1685      C1690   1.397       .  A
C1686      C1707   1.486       .  S
C1686      C1687   1.407       .  A
C1687      C1688   1.404       .  A
C1687      H1692   1.084       .  S
C1689      C1690   1.393       .  A
C1690      H1691   1.085       .  S
C1693      C1694   1.404       .  A
C1693      C1698   1.403       .  A
C1693      F1700   1.358       .  S
C1694      C1695   1.401       .  A
C1695      C1696   1.395       .  A
C1695      F1702   1.358       .  S
C1696      C1697   1.410       .  A
C1696      F1701   1.358       .  S
C1697      C1698   1.412       .  A
C1698      F1699   1.357       .  S
C1703      C1704   1.417       .  A
C1703      C1708   1.395       .  A
C1703      F1710   1.358   1_554  S
C1704      C1705   1.412       .  A
C1705      C1706   1.405       .  A
C1705      F1712   1.357       .  S
C1706      C1707   1.406       .  A
C1706      F1711   1.358       .  S
C1707      C1708   1.401       .  A
C1708      F1709   1.358       .  S
C1713      C1714   1.409       .  A
C1713      C1718   1.399       .  A
C1713      F1720   1.357       .  S
C1714      C1715   1.403       .  A
C1715      C1716   1.394       .  A
C1715      F1722   1.358       .  S
C1716      C1717   1.408       .  A
C1716      F1721   1.359       .  S
C1717      C1718   1.404       .  A
C1718      F1719   1.358       .  S
C1723      C1724   1.407       .  A
C1723      C1728   1.405       .  A
C1723      F1730   1.357       .  S
C1724      C1725   1.408       .  A
C1725      C1726   1.401       .  A
C1725      F1732   1.358       .  S
C1726      C1727   1.410       .  A
C1726      F1731   1.358       .  S
C1727      C1728   1.411       .  A
C1728      F1729   1.357       .  S
C1733      C1734   1.405       .  A
C1733      C1738   1.394       .  A
C1733      F1740   1.358       .  S
C1734      C1735   1.405       .  A
C1735      C1736   1.402       .  A
C1735      F1742   1.358       .  S
C1736      C1737   1.405       .  A
C1736      F1741   1.358       .  S
C1737      C1738   1.403       .  A
C1738      F1739   1.358       .  S
C1743      C1744   1.410       .  A
C1743      C1748   1.398       .  A
C1743      F1750   1.357       .  S
C1744      C1745   1.413       .  A
C1745      C1746   1.397       .  A
C1745      F1752   1.358       .  S
C1746      C1747   1.401       .  A
C1746      F1751   1.358       .  S
C1747      C1748   1.403       .  A
C1748      F2393   1.358       .  S
F1749      C2392   1.358       .  S
C1753      C1754   1.402       .  A
C1753      C1758   1.395       .  A
C1753      F1760   1.358       .  S
C1754      C1755   1.402       .  A
C1755      C1756   1.396       .  A
C1756      C1757   1.409       .  A
C1756      F1761   1.358       .  S
C1757      C1758   1.411       .  A
C1758      F1759   1.358       .  S
C1763      C1764   1.401       .  A
C1763      C1768   1.393       .  A
C1763      F2414   1.358       .  S
C1764      C1765   1.404       .  A
C1765      C1766   1.400       .  A
C1765      F1772   1.358       .  S
C1766      C1767   1.404       .  A
C1766      F1771   1.358       .  S
C1767      C1768   1.405       .  A
C1768      F1769   1.358       .  S
F1770      C2407   1.358       .  S
C1773      C1774   1.407       .  A
C1773      C1778   1.400       .  A
C1773      F1780   1.357       .  S
C1774      C1775   1.408       .  A
C1775      C1776   1.400       .  A
C1775      F1782   1.358       .  S
C1776      C1777   1.406       .  A
C1776      F1781   1.358       .  S
C1777      C1778   1.408       .  A
C1778      F1779   1.358       .  S
C1783      C1784   1.404       .  A
C1783      C1788   1.404       .  A
C1783      F1790   1.357       .  S
C1784      C1785   1.409       .  A
C1785      C1786   1.394       .  A
C1785      F1792   1.359       .  S
C1786      C1787   1.405       .  A
C1786      F1791   1.359       .  S
C1787      C1788   1.412       .  A
C1788      F1789   1.357       .  S
C1793      C1794   1.398       .  A
C1793      C1798   1.393       .  A
C1793      F1800   1.358       .  S
C1794      C1795   1.405       .  A
C1795      C1796   1.405       .  A
C1795      F1802   1.358       .  S
C1796      C1797   1.413       .  A
C1796      F1801   1.358       .  S
C1797      C1798   1.416       .  A
C1798      F1799   1.358       .  S
C1803      C1804   1.405       .  A
C1803      C1808   1.393       .  A
C1803      F1810   1.357       .  S
C1804      C1805   1.403       .  A
C1805      C1806   1.400       .  A
C1805      F1812   1.358       .  S
C1806      C1807   1.406       .  A
C1806      F1811   1.357       .  S
C1807      C1808   1.401       .  A
C1808      F1809   1.358       .  S
C1813      C1814   1.403       .  A
C1813      C1818   1.391       .  A
C1813      F1820   1.358       .  S
C1814      C1815   1.404       .  A
C1815      C1816   1.399       .  A
C1815      F1822   1.358       .  S
C1816      C1817   1.404       .  A
C1816      F1821   1.358       .  S
C1817      C1818   1.402       .  A
C1818      F1819   1.358       .  S
C1823      C1824   1.416       .  A
C1823      C1828   1.395       .  A
C1823      F1830   1.358       .  S
C1824      C1825   1.413       .  A
C1825      C1826   1.406       .  A
C1825      F1832   1.357       .  S
C1826      C1827   1.406       .  A
C1826      F1831   1.358       .  S
C1827      C1828   1.401       .  A
C1828      F1829   1.358       .  S
C1833      C1834   1.413       .  A
C1833      C1838   1.393       .  A
C1833      F1840   1.358       .  S
C1834      C1835   1.411       .  A
C1835      C1836   1.399       .  A
C1835      F1842   1.356       .  S
C1836      C1837   1.402       .  A
C1836      F1841   1.358       .  S
C1837      C1838   1.399       .  A
C1838      F1839   1.358       .  S
C1843      C1844   1.404       .  A
C1843      C1848   1.393       .  A
C1843      F1850   1.357       .  S
C1844      C1845   1.402       .  A
C1845      C1846   1.398       .  A
C1845      F1852   1.358       .  S
C1846      C1847   1.406       .  A
C1846      F1851   1.358       .  S
C1847      C1848   1.401       .  A
C1848      F1849   1.358       .  S
C1853      C1854   1.406       .  A
C1853      C1858   1.397       .  A
C1853      F1860   1.358       .  S
C1854      C1855   1.407       .  A
C1855      C1856   1.394       .  A
C1855      F1862   1.357       .  S
C1856      C1857   1.406       .  A
C1856      F1861   1.358       .  S
C1857      C1858   1.406       .  A
C1858      F1859   1.358       .  S
C1863      C1864   1.412       .  A
C1863      C1868   1.409       .  A
C1863      F1870   1.358       .  S
C1864      C1865   1.408       .  A
C1865      C1866   1.399       .  A
C1865      F1872   1.357       .  S
C1866      C1867   1.406       .  A
C1866      F1871   1.358       .  S
C1867      C1868   1.408       .  A
C1868      F1869   1.358       .  S
C1873      C1874   1.407       .  A
C1873      C1878   1.400       .  A
C1873      F1880   1.357       .  S
C1874      C1875   1.402       .  A
C1875      C1876   1.395       .  A
C1875      F1882   1.358       .  S
C1876      C1877   1.405       .  A
C1876      F1881   1.358       .  S
C1877      C1878   1.404       .  A
C1878      F1879   1.358       .  S
C1883      C1884   1.406       .  A
C1883      C1888   1.406       .  A
C1883      F1890   1.357       .  S
C1884      C1885   1.408       .  A
C1885      C1886   1.395       .  A
C1885      F1892   1.359       .  S
C1886      C1887   1.408       .  A
C1886      F1891   1.358       .  S
C1887      C1888   1.414       .  A
C1888      F1889   1.357       .  S
C1893      C1894   1.405       .  A
C1893      C1898   1.405       .  A
C1893      F1900   1.357       .  S
C1894      C1895   1.400       .  A
C1895      C1896   1.395       .  A
C1895      F1902   1.358       .  S
C1896      C1897   1.416       .  A
C1896      F1901   1.358       .  S
C1897      C1898   1.412       .  A
C1898      F1899   1.357       .  S
C1903      C1904   1.400       .  A
C1903      C1908   1.393       .  A
C1903      F1910   1.358       .  S
C1904      C1905   1.402       .  A
C1905      C1906   1.394       .  A
C1905      F1912   1.358       .  S
C1906      C1907   1.405       .  A
C1906      F1911   1.358       .  S
C1907      C1908   1.404       .  A
C1908      F1909   1.358       .  S
C1913      C1914   1.401       .  A
C1913      C1918   1.396       .  A
C1913      F1920   1.358       .  S
C1914      C1915   1.403       .  A
C1915      C1916   1.398       .  A
C1915      F1922   1.358       .  S
C1916      C1917   1.412       .  A
C1916      F1921   1.358       .  S
C1917      C1918   1.410       .  A
C1918      F1919   1.357       .  S
C1923      C1924   1.408       .  A
C1923      C1928   1.400       .  A
C1923      F1930   1.358       .  S
C1924      C1925   1.407       .  A
C1925      C1926   1.390       .  A
C1925      F1932   1.358       .  S
C1926      C1927   1.399       .  A
C1926      F1931   1.358       .  S
C1927      C1928   1.402       .  A
C1928      F1929   1.358       .  S
O1933     Ni1939   1.911       .  S
O1933      C1954   1.265       .  A
O1934     Ni1957   1.880       .  S
O1934      C1943   1.266       .  A
O1935     Ni1939   1.887       .  S
O1935     Ni1957   1.881   1_554  S
O1935     Ni1951   1.917       .  S
O1935      H1958   0.965       .  S
C1936      O1953   1.281       .  A
C1936      O1945   1.283       .  A
C1936      C2521   1.467       .  S
O1937     Ni1956   1.948       .  S
O1937      C1943   1.278       .  A
O1938     Ni1956   1.920   1_554  S
O1938      C1940   1.270       .  A
Ni1939     O1942   1.913       .  S
Ni1939     O1944   1.904       .  S
C1940      O1950   1.270       .  A
C1940      C2528   1.483       .  S
O1941     Ni1957   1.927   1_554  S
O1941      C1947   1.278       .  A
O1942      C1947   1.277       .  A
C1943      C2571   1.460       .  S
O1944      C1946   1.264   1_554  A
O1945     Ni1956   1.937       .  S
C1946      O1952   1.272       .  A
C1946      C2541   1.492       .  S
C1947      C2561   1.482       .  S
H1948      O1949   0.966       .  S
O1949     Ni1957   1.891       .  S
O1949     Ni1951   1.890   1_556  S
O1949     Ni1956   1.889       .  S
O1950     Ni1951   1.925       .  S
Ni1951     O1955   1.915       .  S
Ni1951     O1953   1.913   1_554  S
O1952     Ni1957   1.938       .  S
C1954      O1955   1.269       .  A
C1954      C2548   1.453       .  S
O1959     Ni1965   1.941       .  S
O1959      C1980   1.279       .  A
O1960     Ni1983   1.924       .  S
O1960      C1969   1.270       .  A
O1961     Ni1965   1.891       .  S
O1961     Ni1983   1.898       .  S
O1961     Ni1977   1.903       .  S
O1961      H1984   0.966       .  S
C1962      O1979   1.283       .  A
C1962      O1971   1.276       .  A
C1962      C2478   1.484       .  S
O1963     Ni1982   1.903       .  S
O1963      C1969   1.263       .  A
O1964     Ni1982   1.903       .  S
O1964      C1966   1.264       .  A
Ni1965     O1968   1.923       .  S
Ni1965     O1970   1.919       .  S
C1966      O1976   1.272       .  A
C1966      C2468   1.495       .  S
O1967     Ni1983   1.915       .  S
O1967      C1973   1.279       .  A
O1968      C1973   1.278       .  A
C1969      C2458   1.460       .  S
O1970      C1972   1.273       .  A
O1971     Ni1982   1.903       .  S
C1972      O1978   1.274       .  A
C1972      C2511   1.486       .  S
C1973      C2488   1.460       .  S
H1974      O1975   0.966       .  S
O1975     Ni1983   1.914       .  S
O1975     Ni1977   1.882       .  S
O1975     Ni1982   1.885       .  S
O1976     Ni1977   1.940       .  S
Ni1977     O1981   1.888       .  S
Ni1977     O1979   1.939       .  S
O1978     Ni1983   1.937       .  S
C1980      O1981   1.268       .  A
C1980      C2498   1.475       .  S
N1985      C1990   1.352       .  A
N1985      H2017   1.039       .  S
N1986      C1993   1.346       .  A
N1986      C1994   1.347       .  A
N1987      C1992   1.349       .  A
N1987      H2018   1.039       .  S
N1988      C1995   1.350       .  A
N1988      C1996   1.350       .  A
C1989      C1997   1.385       .  A
C1989      C2005   1.417       .  A
C1990      C2006   1.421       .  A
C1990      C1998   1.387       .  A
C1991      C1999   1.385       .  A
C1991      C2008   1.410       .  A
C1992      C2007   1.414       .  A
C1992      C2000   1.387       .  A
C1993      C2005   1.404       .  A
C1993      C2001   1.385       .  A
C1994      C2008   1.402       .  A
C1994      C2002   1.384       .  A
C1995      C2003   1.386       .  A
C1995      C2006   1.414       .  A
C1996      C2004   1.385       .  A
C1996      C2007   1.412       .  A
C1997      H2009   1.081       .  S
C1998      H2010   1.081       .  S
C1999      H2011   1.081       .  S
C2000      H2012   1.081       .  S
C2001      C2002   1.374       .  A
C2001      H2013   1.082       .  S
C2002      H2014   1.082       .  S
C2003      C2004   1.378       .  A
C2004      H2016   1.082       .  S
C2005      C2115   1.488       .  S
C2006      C2090   1.494       .  S
C2007      C2131   1.487       .  S
C2008      C2106   1.481       .  S
N2019      C2024   1.349       .  A
N2019      C2023   1.347       .  A
N2019      H2051   1.038       .  S
N2020      C2027   1.346       .  A
N2020      C2028   1.347       .  A
N2021      C2026   1.349       .  A
N2021      C2025   1.350       .  A
N2021      H2052   1.039       .  S
N2022      C2029   1.348       .  A
N2022      C2030   1.347       .  A
C2023      C2031   1.386       .  A
C2023      C2039   1.409       .  A
C2024      C2040   1.410       .  A
C2024      C2032   1.386       .  A
C2025      C2033   1.386       .  A
C2025      C2042   1.412       .  A
C2026      C2041   1.412       .  A
C2026      C2034   1.386       .  A
C2027      C2039   1.405       .  A
C2027      C2035   1.386       .  A
C2028      C2042   1.404       .  A
C2028      C2036   1.385       .  A
C2029      C2037   1.385       .  A
C2029      C2040   1.407       .  A
C2030      C2038   1.386       .  A
C2030      C2041   1.407       .  A
C2031      C2032   1.380       .  A
C2031      H2043   1.081       .  S
C2032      H2044   1.081       .  S
C2033      C2034   1.381       .  A
C2033      H2045   1.081       .  S
C2034      H2046   1.081       .  S
C2035      C2036   1.373       .  A
C2035      H2047   1.082       .  S
C2036      H2048   1.082       .  S
C2037      C2038   1.375       .  A
C2037      H2049   1.082       .  S
C2038      H2050   1.082       .  S
C2039      C2091   1.474       .  S
C2040      C2099   1.482       .  S
C2041      C2122   1.482       .  S
C2042      C2130   1.482       .  S
N2053      C2058   1.354       .  A
N2053      H2085   1.039       .  S
N2054      C2061   1.350       .  A
N2054      C2062   1.352       .  A
N2055      C2060   1.351       .  A
N2055      H2086   1.040       .  S
N2056      C2063   1.350       .  A
N2056      C2064   1.348       .  A
C2057      C2065   1.386       .  A
C2057      C2073   1.416       .  A
C2058      C2074   1.418       .  A
C2058      C2066   1.386       .  A
C2059      C2067   1.385       .  A
C2059      C2076   1.416       .  A
C2060      C2075   1.417       .  A
C2060      C2068   1.387       .  A
C2061      C2073   1.414       .  A
C2061      C2069   1.386       .  A
C2062      C2076   1.412       .  A
C2062      C2070   1.384       .  A
C2063      C2071   1.385       .  A
C2063      C2074   1.410       .  A
C2064      C2072   1.386       .  A
C2064      C2075   1.410       .  A
C2065      H2077   1.081       .  S
C2066      H2078   1.081       .  S
C2067      H2079   1.081       .  S
C2068      H2080   1.081       .  S
C2069      C2070   1.378       .  A
C2069      H2081   1.082       .  S
C2070      H2082   1.082       .  S
C2071      C2072   1.376       .  A
C2073      C2107   1.491       .  S
C2074      C2123   1.493       .  S
C2075      C2098   1.485       .  S
C2076      C2114   1.498       .  S
C2087      C2451   1.475       .  S
C2087      C2092   1.394       .  A
C2088      C2461   1.471       .  S
C2088      C2089   1.406       .  A
C2089      C2090   1.402       .  A
C2089      H2094   1.084       .  S
C2091      C2092   1.397       .  A
C2092      H2093   1.085       .  S
C2095      C2481   1.474       .  S
C2095      C2100   1.397       .  A
C2096      C2438   1.477       .  S
C2096      C2097   1.402       .  A
C2097      C2098   1.401       .  A
C2097      H2102   1.084       .  S
C2099      C2100   1.395       .  A
C2100      H2101   1.085       .  S
C2103      C2568   1.481       .  S
C2103      C2104   1.421       .  A
C2103      C2108   1.407       .  A
C2104      C2431   1.495       .  S
C2104      C2105   1.405       .  A
C2105      C2106   1.399       .  A
C2105      H2110   1.084       .  S
C2106      C2107   1.414       .  A
C2107      C2108   1.397       .  A
C2108      H2109   1.085       .  S
C2111      C2421   1.490       .  S
C2111      C2112   1.423       .  A
C2111      C2116   1.402       .  A
C2112      C2508   1.501       .  S
C2112      C2113   1.414       .  A
C2113      C2114   1.410       .  A
C2113      H2118   1.084       .  S
C2114      C2115   1.419       .  A
C2115      C2116   1.397       .  A
C2116      H2117   1.085       .  S
C2119      C2408   1.475       .  S
C2119      C2124   1.404       .  A
C2120      C2518   1.478       .  S
C2120      C2121   1.400       .  A
C2121      C2122   1.400       .  A
C2121      H2126   1.084       .  S
C2123      C2124   1.403       .  A
C2124      H2125   1.084       .  S
C2127      C2538   1.482       .  S
C2127      C2132   1.405       .  A
C2128      C2398   1.475       .  S
C2128      C2129   1.397       .  A
C2129      C2130   1.393       .  A
C2129      H2134   1.085       .  S
C2131      C2132   1.404       .  A
C2132      H2133   1.084       .  S
O2135     Ni2141   1.905       .  S
O2135      C2156   1.263       .  A
O2136     Ni2159   1.898       .  S
O2136      C2145   1.270       .  A
O2137     Ni2141   1.886       .  S
O2137     Ni2159   1.884       .  S
O2137     Ni2153   1.917       .  S
O2137      H2160   0.966       .  S
C2138      O2155   1.280       .  A
C2138      O2147   1.278       .  A
C2138      C2448   1.463       .  S
O2139     Ni2158   1.942       .  S
O2139      C2145   1.279       .  A
O2140     Ni2158   1.917       .  S
O2140      C2142   1.273       .  A
Ni2141     O2144   1.906       .  S
Ni2141     O2146   1.902       .  S
C2142      O2152   1.273       .  A
C2142      C2368   1.484       .  S
O2143     Ni2159   1.940       .  S
O2143      C2149   1.283       .  A
O2144      C2149   1.277       .  A
C2145      C2418   1.481       .  S
O2146      C2148   1.263       .  A
O2147     Ni2158   1.925       .  S
C2148      O2154   1.271       .  A
C2148      C2441   1.490       .  S
C2149      C2388   1.485       .  S
H2150      O2151   0.966       .  S
O2151     Ni2159   1.906       .  S
O2151     Ni2153   1.901       .  S
O2151     Ni2158   1.889       .  S
O2152     Ni2153   1.935       .  S
Ni2153     O2157   1.930       .  S
Ni2153     O2155   1.919       .  S
O2154     Ni2159   1.937       .  S
C2156      O2157   1.272       .  A
C2156      C2378   1.465       .  S
O2161     Ni2167   1.951       .  S
O2161      C2182   1.279       .  A
O2162     Ni2185   1.929       .  S
O2162      C2171   1.272       .  A
O2163     Ni2167   1.890       .  S
O2163     Ni2185   1.896   1_554  S
O2163     Ni2179   1.891       .  S
O2163      H2186   0.966       .  S
C2164      O2181   1.278       .  A
C2164      O2173   1.277       .  A
C2164      C2401   1.478       .  S
O2165     Ni2184   1.906       .  S
O2165      C2171   1.264       .  A
O2166     Ni2184   1.904       .  S
O2166      C2168   1.265   1_556  A
Ni2167     O2170   1.934       .  S
Ni2167     O2172   1.921   1_554  S
C2168      O2178   1.273       .  A
C2168      C2348   1.494       .  S
O2169     Ni2185   1.915   1_554  S
O2169      C2175   1.283       .  A
O2170      C2175   1.283       .  A
C2171      C2411   1.463       .  S
O2172      C2174   1.271       .  A
O2173     Ni2184   1.912       .  S
C2174      O2180   1.269       .  A
C2174      C2428   1.481       .  S
C2175      C2361   1.471       .  S
H2176      O2177   0.966       .  S
O2177     Ni2185   1.917       .  S
O2177     Ni2179   1.884   1_556  S
O2177     Ni2184   1.887       .  S
O2178     Ni2179   1.939       .  S
Ni2179     O2183   1.891       .  S
Ni2179     O2181   1.925   1_554  S
O2180     Ni2185   1.921       .  S
C2182      O2183   1.268       .  A
C2182      C2338   1.472       .  S
N2187      C2192   1.353       .  A
N2187      H2219   1.039       .  S
N2188      C2195   1.351       .  A
N2188      C2196   1.351       .  A
N2189      C2194   1.352       .  A
N2189      H2220   1.040       .  S
N2190      C2197   1.351       .  A
N2190      C2198   1.351       .  A
C2191      C2199   1.385       .  A
C2191      C2207   1.416       .  A
C2192      C2208   1.419       .  A
C2192      C2200   1.387       .  A
C2193      C2201   1.386       .  A
C2193      C2210   1.414       .  A
C2194      C2209   1.417       .  A
C2194      C2202   1.387       .  A
C2195      C2207   1.414       .  A
C2195      C2203   1.385       .  A
C2196      C2210   1.412       .  A
C2196      C2204   1.385       .  A
C2197      C2205   1.386       .  A
C2197      C2208   1.415       .  A
C2198      C2206   1.385       .  A
C2198      C2209   1.414       .  A
C2199      H2211   1.081       .  S
C2200      H2212   1.080       .  S
C2201      H2213   1.081       .  S
C2202      H2214   1.081       .  S
C2203      C2204   1.378       .  A
C2203      H2215   1.082       .  S
C2204      H2216   1.082       .  S
C2205      C2206   1.378       .  A
C2207      C2316   1.495       .  S
C2208      C2301   1.496       .  S
C2209      C2259   1.493       .  S
C2210      C2308   1.493       .  S
N2221      C2226   1.350       .  A
N2221      C2225   1.349       .  A
N2221      H2253   1.039       .  S
N2222      C2229   1.346       .  A
N2222      C2230   1.347       .  A
N2223      C2228   1.347       .  A
N2223      C2227   1.348       .  A
N2223      H2254   1.039       .  S
N2224      C2231   1.346       .  A
N2224      C2232   1.346       .  A
C2225      C2233   1.386       .  A
C2225      C2241   1.411       .  A
C2226      C2242   1.412       .  A
C2226      C2234   1.386       .  A
C2227      C2235   1.386       .  A
C2227      C2244   1.408       .  A
C2228      C2243   1.408       .  A
C2228      C2236   1.386       .  A
C2229      C2241   1.405       .  A
C2229      C2237   1.386       .  A
C2230      C2244   1.405       .  A
C2230      C2238   1.384       .  A
C2231      C2239   1.385       .  A
C2231      C2242   1.405       .  A
C2232      C2240   1.386       .  A
C2232      C2243   1.405       .  A
C2233      C2234   1.381       .  A
C2233      H2245   1.081       .  S
C2234      H2246   1.081       .  S
C2235      C2236   1.379       .  A
C2235      H2247   1.081       .  S
C2236      H2248   1.080       .  S
C2237      C2238   1.375       .  A
C2237      H2249   1.082       .  S
C2238      H2250   1.082       .  S
C2239      C2240   1.375       .  A
C2239      H2251   1.082       .  S
C2240      H2252   1.082       .  S
C2241      C2324   1.480       .  S
C2242      C2258   1.481       .  S
C2243      C2300   1.474       .  S
C2244      C2333   1.480       .  S
C2255      C2471   1.485       .  S
C2255      C2260   1.409       .  A
C2256      C2391   1.477       .  S
C2256      C2257   1.397       .  A
C2257      C2258   1.394       .  A
C2257      H2262   1.085       .  S
C2259      C2260   1.406       .  A
C2260      H2261   1.084       .  S
N2263      C2268   1.353       .  A
N2263      H2295   1.038       .  S
N2264      C2271   1.346       .  A
N2264      C2272   1.347       .  A
N2265      C2270   1.351       .  A
N2265      H2296   1.040       .  S
N2266      C2273   1.351       .  A
N2266      C2274   1.349       .  A
C2267      C2275   1.385       .  A
C2267      C2283   1.416       .  A
C2268      C2284   1.420       .  A
C2268      C2276   1.387       .  A
C2269      C2277   1.385       .  A
C2269      C2286   1.414       .  A
C2270      C2285   1.417       .  A
C2270      C2278   1.387       .  A
C2271      C2283   1.406       .  A
C2271      C2279   1.386       .  A
C2272      C2286   1.403       .  A
C2272      C2280   1.384       .  A
C2273      C2281   1.386       .  A
C2273      C2284   1.414       .  A
C2274      C2282   1.386       .  A
C2274      C2285   1.412       .  A
C2275      H2287   1.081       .  S
C2276      H2288   1.081       .  S
C2277      H2289   1.081       .  S
C2278      H2290   1.081       .  S
C2279      C2280   1.375       .  A
C2279      H2291   1.082       .  S
C2280      H2292   1.082       .  S
C2281      C2282   1.377       .  A
C2282      H2294   1.082       .  S
C2283      C2309   1.485       .  S
C2284      C2325   1.494       .  S
C2285      C2332   1.487       .  S
C2286      C2317   1.487       .  S
C2297      C2551   1.472       .  S
C2297      C2302   1.409       .  A
C2298      C2358   1.483       .  S
C2298      C2299   1.398       .  A
C2299      C2300   1.396       .  A
C2299      H2304   1.085       .  S
C2301      C2302   1.400       .  A
C2302      H2303   1.084       .  S
C2305      C2501   1.484       .  S
C2305      C2306   1.422       .  A
C2305      C2310   1.401       .  A
C2306      C2371   1.499       .  S
C2306      C2307   1.412       .  A
C2307      C2308   1.408       .  A
C2307      H2312   1.083       .  S
C2308      C2309   1.416       .  A
C2309      C2310   1.393       .  A
C2310      H2311   1.085       .  S
C2313      C2531   1.497       .  S
C2313      C2314   1.427       .  A
C2313      C2318   1.409       .  A
C2314      C2341   1.495       .  S
C2314      C2315   1.412       .  A
C2315      C2316   1.400       .  A
C2315      H2320   1.084       .  S
C2316      C2317   1.414       .  A
C2317      C2318   1.399       .  A
C2318      H2319   1.084       .  S
C2321      C2381   1.475       .  S
C2321      C2326   1.405       .  A
C2322      C2491   1.473       .  S
C2322      C2323   1.397       .  A
C2323      C2324   1.398       .  A
C2323      H2328   1.085       .  S
C2325      C2326   1.404       .  A
C2326      H2327   1.084       .  S
C2329      C2558   1.475       .  S
C2329      C2334   1.395       .  A
C2330      C2351   1.483       .  S
C2330      C2331   1.406       .  A
C2331      C2332   1.404       .  A
C2331      H2336   1.084       .  S
C2333      C2334   1.393       .  A
C2334      H2335   1.085       .  S
C2337      C2338   1.404       .  A
C2337      C2342   1.403       .  A
C2337      F2344   1.358       .  S
C2338      C2339   1.402       .  A
C2339      C2340   1.395       .  A
C2339      F2346   1.358       .  S
C2340      C2341   1.411       .  A
C2340      F2345   1.358       .  S
C2341      C2342   1.412       .  A
C2342      F2343   1.357       .  S
C2347      C2348   1.417       .  A
C2347      C2352   1.395       .  A
C2347      F2354   1.358   1_554  S
C2348      C2349   1.412       .  A
C2349      C2350   1.404       .  A
C2349      F2356   1.357       .  S
C2350      C2351   1.405       .  A
C2350      F2355   1.358       .  S
C2351      C2352   1.400       .  A
C2352      F2353   1.358       .  S
C2357      C2358   1.409       .  A
C2357      C2362   1.399       .  A
C2357      F2364   1.357       .  S
C2358      C2359   1.403       .  A
C2359      C2360   1.393       .  A
C2359      F2366   1.358       .  S
C2360      C2361   1.408       .  A
C2360      F2365   1.359       .  S
C2361      C2362   1.403       .  A
C2362      F2363   1.358       .  S
C2367      C2368   1.407       .  A
C2367      C2372   1.406       .  A
C2367      F2374   1.358       .  S
C2368      C2369   1.407       .  A
C2369      C2370   1.400       .  A
C2369      F2376   1.358       .  S
C2370      C2371   1.409       .  A
C2370      F2375   1.358       .  S
C2371      C2372   1.411       .  A
C2372      F2373   1.358       .  S
C2377      C2378   1.405       .  A
C2377      C2382   1.392       .  A
C2377      F2384   1.358       .  S
C2378      C2379   1.405       .  A
C2379      C2380   1.402       .  A
C2379      F2386   1.358       .  S
C2380      C2381   1.405       .  A
C2380      F2385   1.358       .  S
C2381      C2382   1.401       .  A
C2382      F2383   1.357       .  S
C2387      C2388   1.410       .  A
C2387      C2392   1.398       .  A
C2387      F2394   1.357       .  S
C2388      C2389   1.413       .  A
C2389      C2390   1.397       .  A
C2389      F2396   1.358       .  S
C2390      C2391   1.401       .  A
C2390      F2395   1.358       .  S
C2391      C2392   1.403       .  A
C2397      C2398   1.402       .  A
C2397      C2402   1.395       .  A
C2397      F2404   1.358       .  S
C2398      C2399   1.403       .  A
C2399      C2400   1.396       .  A
C2400      C2401   1.409       .  A
C2400      F2405   1.358       .  S
C2401      C2402   1.410       .  A
C2402      F2403   1.358       .  S
C2407      C2408   1.402       .  A
C2407      C2412   1.393       .  A
C2408      C2409   1.405       .  A
C2409      C2410   1.401       .  A
C2409      F2416   1.358       .  S
C2410      C2411   1.405       .  A
C2410      F2415   1.358       .  S
C2411      C2412   1.405       .  A
C2412      F2413   1.358       .  S
C2417      C2418   1.408       .  A
C2417      C2422   1.400       .  A
C2417      F2424   1.358       .  S
C2418      C2419   1.408       .  A
C2419      C2420   1.399       .  A
C2419      F2426   1.358       .  S
C2420      C2421   1.406       .  A
C2420      F2425   1.358       .  S
C2421      C2422   1.408       .  A
C2422      F2423   1.358       .  S
C2427      C2428   1.404       .  A
C2427      C2432   1.404       .  A
C2427      F2434   1.357       .  S
C2428      C2429   1.410       .  A
C2429      C2430   1.395       .  A
C2429      F2436   1.359       .  S
C2430      C2431   1.406       .  A
C2430      F2435   1.359       .  S
C2431      C2432   1.413       .  A
C2432      F2433   1.356       .  S
C2437      C2438   1.397       .  A
C2437      C2442   1.392       .  A
C2437      F2444   1.358       .  S
C2438      C2439   1.405       .  A
C2439      C2440   1.405       .  A
C2439      F2446   1.358       .  S
C2440      C2441   1.412       .  A
C2440      F2445   1.358       .  S
C2441      C2442   1.415       .  A
C2442      F2443   1.358       .  S
C2447      C2448   1.405       .  A
C2447      C2452   1.395       .  A
C2447      F2454   1.358       .  S
C2448      C2449   1.402       .  A
C2449      C2450   1.399       .  A
C2449      F2456   1.358       .  S
C2450      C2451   1.405       .  A
C2450      F2455   1.358       .  S
C2451      C2452   1.402       .  A
C2452      F2453   1.358       .  S
C2457      C2458   1.404       .  A
C2457      C2462   1.390       .  A
C2457      F2464   1.359       .  S
C2458      C2459   1.404       .  A
C2459      C2460   1.400       .  A
C2459      F2466   1.358       .  S
C2460      C2461   1.405       .  A
C2460      F2465   1.358       .  S
C2461      C2462   1.401       .  A
C2462      F2463   1.357       .  S
C2467      C2468   1.416       .  A
C2467      C2472   1.395       .  A
C2467      F2474   1.358       .  S
C2468      C2469   1.413       .  A
C2469      C2470   1.405       .  A
C2469      F2476   1.357       .  S
C2470      C2471   1.405       .  A
C2470      F2475   1.358       .  S
C2471      C2472   1.401       .  A
C2472      F2473   1.358       .  S
C2477      C2478   1.413       .  A
C2477      C2482   1.393       .  A
C2477      F2484   1.358       .  S
C2478      C2479   1.411       .  A
C2479      C2480   1.399       .  A
C2479      F2486   1.357       .  S
C2480      C2481   1.402       .  A
C2480      F2485   1.358       .  S
C2481      C2482   1.400       .  A
C2482      F2483   1.358       .  S
C2487      C2488   1.404       .  A
C2487      C2492   1.395       .  A
C2487      F2494   1.358       .  S
C2488      C2489   1.402       .  A
C2489      C2490   1.398       .  A
C2489      F2496   1.358       .  S
C2490      C2491   1.405       .  A
C2490      F2495   1.358       .  S
C2491      C2492   1.402       .  A
C2492      F2493   1.358       .  S
C2497      C2498   1.407       .  A
C2497      C2502   1.397       .  A
C2497      F2504   1.358       .  S
C2498      C2499   1.407       .  A
C2499      C2500   1.395       .  A
C2499      F2506   1.357       .  S
C2500      C2501   1.406       .  A
C2500      F2505   1.358       .  S
C2501      C2502   1.406       .  A
C2502      F2503   1.358       .  S
C2507      C2508   1.411       .  A
C2507      C2512   1.408       .  A
C2507      F2514   1.358       .  S
C2508      C2509   1.408       .  A
C2509      C2510   1.400       .  A
C2509      F2516   1.358       .  S
C2510      C2511   1.407       .  A
C2510      F2515   1.358       .  S
C2511      C2512   1.408       .  A
C2512      F2513   1.358       .  S
C2517      C2518   1.407       .  A
C2517      C2522   1.399       .  A
C2517      F2524   1.357       .  S
C2518      C2519   1.402       .  A
C2519      C2520   1.395       .  A
C2519      F2526   1.358       .  S
C2520      C2521   1.406       .  A
C2520      F2525   1.358       .  S
C2521      C2522   1.404       .  A
C2522      F2523   1.358       .  S
C2527      C2528   1.406       .  A
C2527      C2532   1.406       .  A
C2527      F2534   1.357       .  S
C2528      C2529   1.408       .  A
C2529      C2530   1.394       .  A
C2529      F2536   1.359       .  S
C2530      C2531   1.408       .  A
C2530      F2535   1.358       .  S
C2531      C2532   1.413       .  A
C2532      F2533   1.357       .  S
C2537      C2538   1.405       .  A
C2537      C2542   1.405       .  A
C2537      F2544   1.357       .  S
C2538      C2539   1.400       .  A
C2539      C2540   1.394       .  A
C2539      F2546   1.358       .  S
C2540      C2541   1.416       .  A
C2540      F2545   1.358       .  S
C2541      C2542   1.412       .  A
C2542      F2543   1.357       .  S
C2547      C2548   1.401       .  A
C2547      C2552   1.393       .  A
C2547      F2554   1.358       .  S
C2548      C2549   1.403       .  A
C2549      C2550   1.395       .  A
C2549      F2556   1.358       .  S
C2550      C2551   1.406       .  A
C2550      F2555   1.358       .  S
C2551      C2552   1.404       .  A
C2552      F2553   1.358       .  S
C2557      C2558   1.401       .  A
C2557      C2562   1.395       .  A
C2557      F2564   1.358       .  S
C2558      C2559   1.403       .  A
C2559      C2560   1.397       .  A
C2559      F2566   1.358       .  S
C2560      C2561   1.412       .  A
C2560      F2565   1.358       .  S
C2561      C2562   1.410       .  A
C2562      F2563   1.358       .  S
C2567      C2568   1.409       .  A
C2567      C2572   1.400       .  A
C2567      F2574   1.358       .  S
C2568      C2569   1.407       .  A
C2569      C2570   1.391       .  A
C2569      F2576   1.358       .  S
C2570      C2571   1.400       .  A
C2570      F2575   1.358       .  S
C2571      C2572   1.403       .  A
C2572      F2573   1.358       .  S
