geometry optimzed in LAMMPS
_audit_creation_date              2020-11-30 
_audit_creation_method            'lammps2cif' 
_symmetry_space_group_name_H-M    'P1' 
_symmetry_Int_Tables_number       1 
_symmetry_cell_setting            triclinic 
loop_ 
_symmetry_equiv_pos_as_xyz 
  x,y,z 
_cell_length_a                    30.19509435 
_cell_length_b                    30.718059453839793 
_cell_length_c                    46.92265629188197 
_cell_angle_alpha                 90.16460397031803 
_cell_angle_beta                  89.91887866282971 
_cell_angle_gamma                 90.2248377859645 
loop_ 
_atom_site_label 
_atom_site_type_symbol 
_atom_site_fract_x 
_atom_site_fract_y 
_atom_site_fract_z 
_atom_site_charge 
C1          C  0.50006864  0.44251939  0.76637642     0.86700
C2          C  0.45804355  0.45119767  0.74859946    -0.53600
C3          C  0.45734718  0.99105197  0.73564865     0.09600
C4          C  0.49967553  0.01820088  0.74099097     0.20500
C5          C  0.03826098  0.44906359  0.74521924    -0.54300
C6          C  0.03849599  0.98859264  0.73190440     0.09700
C7          C  0.50290124  0.48162804  0.78674107    -0.53800
C8          C  0.00321431  0.02098672  0.77357164     0.10300
H9          H  0.43111915  0.42837463  0.74584044     0.14800
H10         H  0.49975061  0.05055987  0.73054060     0.00500
H11         H  0.06409579  0.42502582  0.74215437     0.15100
H12         H  0.50466071  0.47845089  0.80977498     0.14900
O13         O  0.29553095  0.51465691  0.64709062    -0.74200
O14         O  0.20902707  0.04862105  0.59172699    -0.74300
O15         O  0.29876587  0.04871313  0.59435126    -0.74300
O16         O  0.20519031  0.51415405  0.64458844    -0.74400
O17         O  0.20468888  0.08053734  0.66367107    -0.74300
O18         O  0.29661182  0.11621075  0.61195418    -0.74300
O19         O  0.20700990  0.11501294  0.61082760    -0.74300
O20         O  0.29543476  0.08210905  0.66492891    -0.74300
Ni21       Ni  0.25213814  0.02913647  0.61881869     1.25400
Ni22       Ni  0.25086044  0.10079478  0.63859056     1.25400
C23         C  0.31073513  0.04330983  0.66442507     0.87900
C24         C  0.19345586  0.08738541  0.59226793     0.87900
C25         C  0.31320970  0.08796029  0.59491665     0.87900
C26         C  0.18872688  0.04182214  0.66210773     0.88100
O27         O  0.20900435  0.51889834  0.36655283    -0.74200
O28         O  0.29581061  0.05152590  0.42197605    -0.74300
O29         O  0.20605966  0.05251110  0.41944117    -0.74300
O30         O  0.29905610  0.51779625  0.36888763    -0.74400
O31         O  0.30125000  0.08453476  0.35067271    -0.74300
O32         O  0.20833168  0.11992918  0.40200525    -0.74300
O33         O  0.29822154  0.11861651  0.40411807    -0.74300
O34         O  0.21047579  0.08587188  0.34864648    -0.74300
Ni35       Ni  0.25244722  0.03287858  0.39481969     1.25400
Ni36       Ni  0.25470637  0.10463904  0.37564426     1.25400
C37         C  0.19431607  0.04717349  0.34894316     0.87900
C38         C  0.31157200  0.09030629  0.42216409     0.87900
C39         C  0.19135530  0.09155194  0.41880505     0.87900
C40         C  0.31619235  0.04546905  0.35169283     0.88100
C41         C  0.49189507  0.02856532  0.99141919     0.02500
C42         C  0.48659379  0.02739535  0.02124492     0.02400
C43         C  0.48309813  0.48728891  0.03506273    -0.18100
C44         C  0.48534013  0.44812356  0.01974931     0.02500
C45         C  0.49056107  0.44925007  0.98986112     0.02400
C46         C  0.49379495  0.48946244  0.97605106    -0.18100
H47         H  0.49772615  0.49033012  0.95307477     0.04500
H48         H  0.48007369  0.48656287  0.05809702     0.04500
O49         O  0.02982049  0.28410534  0.15825306    -0.74200
O50         O  0.02497840  0.19437463  0.10172107    -0.74300
O51         O  0.02615615  0.28260145  0.10070785    -0.74300
O52         O  0.02870142  0.19617719  0.15908792    -0.74400
O53         O  0.45493041  0.19650177  0.16103898    -0.74300
O54         O  0.45244046  0.28326052  0.10302536    -0.74300
O55         O  0.45130678  0.19502188  0.10379855    -0.74300
O56         O  0.45606526  0.28479956  0.16031921    -0.74300
Ni57       Ni  0.03004945  0.23931773  0.12984778     1.25400
Ni58       Ni  0.45106064  0.23994785  0.13210007     1.25400
C59         C  0.49375479  0.29940597  0.16852567     0.87900
C60         C  0.48734053  0.17920534  0.09383902     0.87900
C61         C  0.48880978  0.29769774  0.09255120     0.87900
C62         C  0.49227007  0.18164201  0.16939153     0.88100
C63         C  0.50344190  0.45025787  0.24428594     0.86700
C64         C  0.04503495  0.45764452  0.26279211    -0.53600
C65         C  0.04556942  0.99638512  0.27722184     0.09600
C66         C  0.50449557  0.02474681  0.27154383     0.20500
C67         C  0.46459918  0.45635538  0.26521465    -0.54300
C68         C  0.46446748  0.99561418  0.27909643     0.09700
C69         C  0.50205607  0.49028722  0.22488911    -0.53800
C70         C  0.50227057  0.02895732  0.23903985     0.10300
H71         H  0.07255917  0.43545484  0.26429840     0.14800
H72         H  0.50495852  0.05641303  0.28298255     0.00500
H73         H  0.43846646  0.43233153  0.26792280     0.15100
H74         H  0.50029877  0.48823150  0.20178953     0.14900
O75         O  0.46792056  0.19381244  0.91008471    -0.74200
O76         O  0.46944728  0.27619600  0.84932676    -0.74300
O77         O  0.47139782  0.18849001  0.85281440    -0.74300
O78         O  0.46574912  0.28186484  0.90667111    -0.74400
O79         O  0.03944317  0.28383935  0.90835789    -0.74300
O80         O  0.04518139  0.18998122  0.85459287    -0.74300
O81         O  0.04320528  0.27831434  0.85111767    -0.74300
O82         O  0.04169514  0.19554942  0.91170749    -0.74300
Ni83       Ni  0.46601823  0.23502707  0.87969141     1.25400
Ni84       Ni  0.04503153  0.23703958  0.88152853     1.25400
C85         C  0.00459887  0.18010358  0.92030128     0.87900
C86         C  0.00654891  0.29126063  0.84043566     0.87900
C87         C  0.00906026  0.17347269  0.84507868     0.87900
C88         C  0.00170926  0.29882260  0.91606779     0.88100
C89         C  0.46333502  0.13006508  0.52384742     0.02500
C90         C  0.46085403  0.13126109  0.49388170     0.02400
C91         C  0.49996370  0.13353962  0.47784130    -0.18100
C92         C  0.04166521  0.13200786  0.49097201     0.02500
C93         C  0.04420908  0.13131586  0.52111177     0.02400
C94         C  0.50485408  0.13182378  0.53708023    -0.18100
H95         H  0.50646840  0.12920977  0.56009726     0.04500
H96         H  0.49794358  0.13234672  0.45476746     0.04500
C97         C  0.50016665  0.40823805  0.22670104    -0.05300
C98         C  0.03472393  0.37745489  0.22556519    -0.32700
C99         C  0.03264886  0.34153197  0.20722668     0.36500
C100        C  0.49554205  0.33523557  0.18956848    -0.05600
C101        C  0.46034208  0.36470056  0.19126780    -0.32600
C102        C  0.46242823  0.40085022  0.20941129     0.36400
H103        H  0.06427615  0.38076569  0.23816632     0.16800
O104        O  0.06753273  0.31305710  0.20654827    -0.60100
H105        H  0.43157611  0.36062959  0.17772107     0.16800
O106        O  0.42826497  0.43018892  0.20896284    -0.60200
H107        H  0.40383251  0.41620408  0.21978726     0.43800
H108        H  0.05935635  0.28951769  0.22002550     0.43800
C109        C  0.49322977  0.14571652  0.19013719    -0.05300
C110        C  0.45707091  0.11690336  0.19157234    -0.32700
C111        C  0.45937763  0.07923130  0.20806712     0.36500
C112        C  0.49774017  0.07052415  0.22394546    -0.05600
C113        C  0.03301633  0.10014705  0.22368958    -0.32600
C114        C  0.03101835  0.13763395  0.20694047     0.36400
H115        H  0.42768125  0.12249872  0.17889644     0.16800
O116        O  0.42409873  0.05093609  0.20850020    -0.60100
H117        H  0.06289370  0.09334652  0.23551096     0.16800
O118        O  0.06661992  0.16548950  0.20661492    -0.60200
H119        H  0.05956793  0.18823071  0.22097972     0.43800
H120        H  0.42745639  0.03270114  0.19115184     0.43800
C121        C  0.00386070  0.14430972  0.94114408    -0.05300
C122        C  0.46576087  0.13735820  0.95772272    -0.32700
C123        C  0.46180961  0.10042056  0.97494200     0.36500
C124        C  0.49638602  0.06988920  0.97566879    -0.05600
C125        C  0.03489738  0.07730823  0.95969943    -0.32600
C126        C  0.03881301  0.11404940  0.94244472     0.36400
H127        H  0.43833792  0.15994517  0.95669383     0.16800
O128        O  0.42283507  0.09260362  0.98917286    -0.60100
H129        H  0.06155502  0.05378487  0.96001638     0.16800
O130        O  0.07594916  0.11876519  0.92584318    -0.60200
H131        H  0.06933732  0.10263282  0.90799964     0.43800
H132        H  0.41861010  0.11782939  0.00213811     0.43800
C133        C  0.49343649  0.40934246  0.97235263    -0.05300
C134        C  0.03314662  0.40010092  0.95818955    -0.32700
C135        C  0.03637097  0.36428812  0.93990626     0.36500
C136        C  0.99947810  0.33659481  0.93573868    -0.05600
C137        C  0.45951127  0.34627987  0.94982929    -0.32600
C138        C  0.45636520  0.38234820  0.96805587     0.36400
H139        H  0.06162658  0.42125212  0.96101540     0.16800
O140        O  0.07544628  0.35749023  0.92567113    -0.60100
H141        H  0.43047475  0.32603708  0.94661779     0.16800
O142        O  0.41646841  0.39227733  0.98043696    -0.60200
H143        H  0.41234295  0.37042091  0.99574470     0.43800
H144        H  0.07242104  0.37357495  0.90747267     0.43800
C145        C  0.48446664  0.40700083  0.03595450    -0.05300
C146        C  0.02137392  0.37941836  0.03554147    -0.32700
C147        C  0.02306320  0.34296177  0.05332529     0.36500
C148        C  0.48726953  0.33362183  0.07173521    -0.05600
C149        C  0.44994035  0.36075927  0.07144507    -0.32600
C150        C  0.44854378  0.39733099  0.05396555     0.36400
H151        H  0.04958056  0.38703405  0.02212891     0.16800
O152        O  0.06023933  0.31745305  0.05301749    -0.60100
H153        H  0.42227170  0.35460534  0.08561774     0.16800
O154        O  0.41260991  0.42444121  0.05544499    -0.60200
H155        H  0.39273740  0.41486192  0.03982192     0.43800
H156        H  0.05432944  0.29476050  0.03842520     0.43800
C157        C  0.48582002  0.14197597  0.07372740    -0.05300
C158        C  0.02468270  0.12941229  0.05935864    -0.32700
C159        C  0.02519835  0.09240102  0.04199032     0.36500
C160        C  0.48654010  0.06732777  0.03872381    -0.05600
C161        C  0.44777684  0.07950167  0.05298224    -0.32600
C162        C  0.44687766  0.11692649  0.06995245     0.36400
H163        H  0.05502781  0.14794441  0.06187656     0.16800
O164        O  0.06384109  0.08048703  0.02874499    -0.60100
H165        H  0.41795009  0.06007163  0.05067290     0.16800
O166        O  0.40815784  0.12762503  0.08352889    -0.60200
H167        H  0.39142237  0.14527585  0.06956193     0.43800
H168        H  0.07730187  0.05837729  0.04139957     0.43800
C169        C  0.34682231  0.10162987  0.44288904    -0.05300
C170        C  0.37346897  0.06822226  0.45382728    -0.32700
C171        C  0.40949202  0.07774547  0.47144285     0.36500
C172        C  0.41938117  0.12113543  0.47855680    -0.05600
C173        C  0.39206506  0.15460091  0.46867058    -0.32600
C174        C  0.35576466  0.14511191  0.45104292     0.36400
H175        H  0.36744490  0.03461788  0.44786744     0.16800
O176        O  0.43642511  0.04463577  0.48038814    -0.60100
H177        H  0.39953290  0.18813807  0.47409635     0.16800
O178        O  0.32982287  0.17861204  0.44157061    -0.60200
H179        H  0.30420718  0.17943225  0.45486545     0.43800
H180        H  0.42125294  0.03201493  0.49720360     0.43800
C181        C  0.08056623  0.12336884  0.47255851    -0.05300
C182        C  0.08255222  0.08324017  0.45835401    -0.32700
C183        C  0.11852215  0.07280887  0.44100507     0.36500
C184        C  0.15321035  0.10303013  0.43710184    -0.05600
C185        C  0.15073964  0.14387389  0.45065876    -0.32600
C186        C  0.11491700  0.15389213  0.46869967     0.36400
H187        H  0.05617277  0.05957095  0.46108342     0.16800
O188        O  0.11913696  0.03303261  0.42763889    -0.60100
H189        H  0.17695368  0.16762044  0.44769463     0.16800
O190        O  0.11314567  0.19378553  0.48182963    -0.60200
H191        H  0.13102417  0.19065506  0.49939926     0.43800
H192        H  0.10576291  0.03808342  0.40864159     0.43800
C193        C  0.35420952  0.03234380  0.33315848    -0.05300
C194        C  0.37133308  0.06169091  0.31292625    -0.32700
C195        C  0.40763113  0.05058984  0.29564703     0.36500
C196        C  0.42738573  0.00925924  0.29808616    -0.05600
C197        C  0.41030837  0.47984222  0.31813516    -0.32600
C198        C  0.37455120  0.99108829  0.33572153     0.36400
H199        H  0.35645119  0.09345136  0.31029904     0.16800
O200        O  0.42182913  0.07949051  0.27533662    -0.60100
H201        H  0.42511122  0.44796583  0.32041643     0.16800
O202        O  0.35986655  0.46122354  0.35527528    -0.60200
H203        H  0.37792162  0.46659272  0.37256731     0.43800
H204        H  0.43794351  0.10259593  0.28594313     0.43800
C205        C  0.15715252  0.03476133  0.32960345    -0.05300
C206        C  0.14006856  0.99211537  0.33075490    -0.32700
C207        C  0.10351922  0.97959789  0.31436064     0.36500
C208        C  0.08318450  0.00966043  0.29591543    -0.05600
C209        C  0.09969849  0.05240152  0.29493515    -0.32600
C210        C  0.13655126  0.06497138  0.31126525     0.36400
H211        H  0.15461678  0.96822332  0.34481885     0.16800
O212        O  0.08738498  0.43801036  0.31712601    -0.60100
H213        H  0.08443265  0.07615555  0.28118840     0.16800
O214        O  0.15143419  0.10710391  0.30945851    -0.60200
H215        H  0.17171191  0.10748816  0.29281152     0.43800
H216        H  0.06170284  0.44049050  0.33024021     0.43800
C217        C  0.08611882  0.12337323  0.53676117    -0.05300
C218        C  0.11033557  0.08529765  0.53139602    -0.32700
C219        C  0.14647626  0.07399849  0.54842380     0.36500
C220        C  0.15839859  0.10039809  0.57188635    -0.05600
C221        C  0.13478868  0.13910123  0.57676488    -0.32600
C222        C  0.09876417  0.15043056  0.55962583     0.36400
H223        H  0.10013248  0.06311402  0.51468404     0.16800
O224        O  0.16886271  0.03631580  0.54240204    -0.60100
H225        H  0.14319509  0.16010045  0.59455407     0.16800
O226        O  0.07567281  0.18778749  0.56555891    -0.60200
H227        H  0.05875633  0.18152121  0.58324868     0.43800
H228        H  0.19230681  0.04490286  0.52868606     0.43800
C229        C  0.42421192  0.11980263  0.54163298    -0.05300
C230        C  0.39009766  0.15021050  0.54522471    -0.32700
C231        C  0.35369984  0.14066010  0.56281206     0.36500
C232        C  0.35075593  0.09981764  0.57634041    -0.05600
C233        C  0.38468368  0.06938254  0.57231060    -0.32600
C234        C  0.42148857  0.07936289  0.55552482     0.36400
H235        H  0.39195759  0.18145000  0.53462309     0.16800
O236        O  0.32043847  0.17062501  0.56571225    -0.60100
H237        H  0.38307358  0.03792272  0.58266417     0.16800
O238        O  0.45428015  0.04895698  0.55220827    -0.60200
H239        H  0.47264930  0.05130764  0.56967659     0.43800
H240        H  0.33046153  0.19057266  0.58107769     0.43800
C241        C  0.00681375  0.06202227  0.78980206    -0.05300
C242        C  0.04188013  0.06774854  0.80905873    -0.32700
C243        C  0.04407362  0.10472842  0.82649348     0.36500
C244        C  0.01027027  0.13619398  0.82517338    -0.05600
C245        C  0.47552158  0.13053452  0.80559840    -0.32600
C246        C  0.47388607  0.09398508  0.78778843     0.36400
H247        H  0.06725958  0.04305986  0.81088884     0.16800
O248        O  0.07766815  0.10827211  0.84602510    -0.60100
H249        H  0.44914856  0.15427013  0.80435326     0.16800
O250        O  0.43834638  0.08826623  0.76997988    -0.60200
H251        H  0.44527994  0.10579748  0.75282977     0.43800
H252        H  0.10345170  0.11957774  0.83514754     0.43800
C253        C  0.00337909  0.39959714  0.78269372    -0.05300
C254        C  0.46989446  0.36745102  0.78178706    -0.32700
C255        C  0.47158305  0.33090670  0.79945091     0.36100
C256        C  0.00696467  0.32572265  0.81860768    -0.05600
C257        C  0.04177562  0.35595954  0.81831435    -0.32600
C258        C  0.04038048  0.39234007  0.80056897     0.36400
H259        H  0.44164486  0.37004314  0.76795358     0.16800
O260        O  0.43790919  0.30085515  0.79813139    -0.60100
H261        H  0.06943354  0.35251632  0.83281694     0.16800
O262        O  0.07421696  0.42220738  0.80219451    -0.60200
H263        H  0.09866716  0.40968402  0.79069810     0.43800
H264        H  0.44877255  0.27778558  0.78507304     0.43800
C265        C  0.07540236  0.00266557  0.71287754    -0.05300
C266        C  0.09275118  0.04494364  0.71540243    -0.32700
C267        C  0.12968102  0.05810676  0.69936134     0.36500
C268        C  0.15007600  0.02884678  0.68011564    -0.05600
C269        C  0.13202033  0.98673242  0.67729212    -0.32600
C270        C  0.09503462  0.97371816  0.69322419     0.36400
H271        H  0.07840495  0.06767502  0.73046583     0.16800
O272        O  0.14520278  0.09982229  0.70262830    -0.60100
H273        H  0.14633638  0.96365318  0.66244801     0.16800
O274        O  0.07812459  0.43266819  0.68912141    -0.60200
H275        H  0.05385060  0.43625526  0.67508904     0.43800
H276        H  0.16685777  0.09831324  0.71846852     0.43800
C277        C  0.34768167  0.03188547  0.68331578    -0.05300
C278        C  0.33967839  0.00823254  0.70821041    -0.32700
C279        C  0.37475055  0.99620617  0.72599734     0.36500
C280        C  0.41900739  0.00641704  0.71837487    -0.05600
C281        C  0.42661843  0.03114311  0.69369330    -0.32600
C282        C  0.39132171  0.04396378  0.67628462     0.36400
H283        H  0.30606795  0.99944334  0.71401614     0.16800
O284        O  0.36513936  0.97512634  0.75098837    -0.60100
H285        H  0.46006976  0.53962016  0.68740067     0.16800
O286        O  0.39979963  0.56791579  0.65224141    -0.60200
H287        H  0.40531007  0.54618444  0.63700889     0.43800
H288        H  0.36564318  0.99811116  0.76586603     0.43800
C289        C  0.50006880  0.94251945  0.76637663     0.86700
C290        C  0.45804394  0.95119734  0.74859935    -0.53600
C291        C  0.45734721  0.49105228  0.73564872     0.09600
C292        C  0.49967562  0.51820096  0.74099094     0.20500
C293        C  0.03826162  0.94906480  0.74521956    -0.54300
C294        C  0.03849567  0.48859165  0.73190442     0.09700
C295        C  0.50290109  0.98162819  0.78674119    -0.53800
C296        C  0.00321525  0.52098556  0.77357224     0.10300
H297        H  0.43112034  0.92837364  0.74583972     0.14800
H298        H  0.49975062  0.55055993  0.73054053     0.00500
H299        H  0.06409686  0.92502735  0.74215514     0.15100
H300        H  0.50466071  0.97845118  0.80977510     0.14900
O301        O  0.29553047  0.01465767  0.64709069    -0.74200
O302        O  0.20902660  0.54861942  0.59172721    -0.74300
O303        O  0.29876537  0.54871212  0.59435117    -0.74300
O304        O  0.20519000  0.01415566  0.64458813    -0.74400
O305        O  0.20468877  0.58053583  0.66367123    -0.74300
O306        O  0.29661111  0.61620977  0.61195407    -0.74300
O307        O  0.20700929  0.61501136  0.61082776    -0.74300
O308        O  0.29543459  0.58210825  0.66492890    -0.74300
Ni309      Ni  0.25213810  0.52913520  0.61881879     1.25400
Ni310      Ni  0.25086003  0.60079356  0.63859060     1.25400
C311        C  0.31073541  0.54330921  0.66442499     0.87900
C312        C  0.19345529  0.58738375  0.59226814     0.87900
C313        C  0.31320898  0.58795933  0.59491652     0.87900
C314        C  0.18872706  0.54182050  0.66210801     0.88100
O315        O  0.20900433  0.01889850  0.36655287    -0.74200
O316        O  0.29581011  0.55152607  0.42197626    -0.74300
O317        O  0.20605928  0.55251130  0.41944103    -0.74300
O318        O  0.29905613  0.01779637  0.36888730    -0.74400
O319        O  0.30124989  0.58453452  0.35067283    -0.74300
O320        O  0.20833159  0.61992940  0.40200510    -0.74300
O321        O  0.29822142  0.61861649  0.40411803    -0.74300
O322        O  0.21047572  0.58587168  0.34864637    -0.74300
Ni323      Ni  0.25244698  0.53287861  0.39481978     1.25400
Ni324      Ni  0.25470627  0.60463899  0.37564420     1.25400
C325        C  0.19431615  0.54717321  0.34894301     0.87900
C326        C  0.31157170  0.59030638  0.42216420     0.87900
C327        C  0.19135511  0.59155220  0.41880486     0.87900
C328        C  0.31619234  0.54546887  0.35169313     0.88100
C329        C  0.49189400  0.52856510  0.99141939     0.02500
C330        C  0.48659429  0.52739450  0.02124523     0.02400
C331        C  0.48309697  0.98729007  0.03506273    -0.18100
C332        C  0.48533988  0.94812443  0.01974971     0.02500
C333        C  0.49056222  0.94925030  0.98986161     0.02400
C334        C  0.49379685  0.98946236  0.97605123    -0.18100
H335        H  0.49772909  0.99032956  0.95307501     0.04500
H336        H  0.48007159  0.98656453  0.05809697     0.04500
O337        O  0.02982114  0.78410431  0.15825413    -0.74200
O338        O  0.02497884  0.69437443  0.10172151    -0.74300
O339        O  0.02615698  0.78260134  0.10070883    -0.74300
O340        O  0.02870160  0.69617625  0.15908839    -0.74400
O341        O  0.45492904  0.69650106  0.16103809    -0.74300
O342        O  0.45244051  0.78326102  0.10302534    -0.74300
O343        O  0.45130643  0.69502221  0.10379770    -0.74300
O344        O  0.45606454  0.78479874  0.16031919    -0.74300
Ni345      Ni  0.03004999  0.73931715  0.12984851     1.25400
Ni346      Ni  0.45106004  0.73994769  0.13209957     1.25400
C347        C  0.49375406  0.79940474  0.16852603     0.87900
C348        C  0.48734030  0.67920551  0.09383843     0.87900
C349        C  0.48881003  0.79769850  0.09255163     0.87900
C350        C  0.49226851  0.68164123  0.16939085     0.88100
C351        C  0.50344195  0.95025710  0.24428586     0.86700
C352        C  0.04503558  0.95764483  0.26279209    -0.53600
C353        C  0.04556886  0.49638448  0.27722221     0.09600
C354        C  0.50449513  0.52474745  0.27154407     0.20500
C355        C  0.46459938  0.95635487  0.26521465    -0.54300
C356        C  0.46446720  0.49561458  0.27909659     0.09700
C357        C  0.50205611  0.99028636  0.22488891    -0.53800
C358        C  0.50227005  0.52895808  0.23904010     0.10300
H359        H  0.07255976  0.93545511  0.26429863     0.14800
H360        H  0.50495806  0.55641359  0.28298287     0.00500
H361        H  0.43846661  0.93233111  0.26792292     0.15100
H362        H  0.50029868  0.98823054  0.20178935     0.14900
O363        O  0.46791998  0.69381266  0.91008519    -0.74200
O364        O  0.46944745  0.77619629  0.84932733    -0.74300
O365        O  0.47139722  0.68849015  0.85281481    -0.74300
O366        O  0.46574950  0.78186511  0.90667166    -0.74400
O367        O  0.03944348  0.78383964  0.90835755    -0.74300
O368        O  0.04518130  0.68998129  0.85459261    -0.74300
O369        O  0.04320535  0.77831461  0.85111733    -0.74300
O370        O  0.04169552  0.69554978  0.91170719    -0.74300
Ni371      Ni  0.46601808  0.73502733  0.87969190     1.25400
Ni372      Ni  0.04503169  0.73703984  0.88152818     1.25400
C373        C  0.00459930  0.68010416  0.92030120     0.87900
C374        C  0.00654894  0.79126101  0.84043544     0.87900
C375        C  0.00906009  0.67347243  0.84507878     0.87900
C376        C  0.00170963  0.79882291  0.91606755     0.88100
C377        C  0.46333472  0.63006408  0.52384786     0.02500
C378        C  0.46085376  0.63126011  0.49388214     0.02400
C379        C  0.49996339  0.63353908  0.47784177    -0.18100
C380        C  0.04166507  0.63200636  0.49097203     0.02500
C381        C  0.04420871  0.63131427  0.52111180     0.02400
C382        C  0.50485373  0.63182348  0.53708071    -0.18100
H383        H  0.50646807  0.62920978  0.56009775     0.04500
H384        H  0.49794333  0.63234612  0.45476792     0.04500
C385        C  0.50016647  0.90823700  0.22670122    -0.05300
C386        C  0.03472397  0.87745350  0.22556663    -0.32700
C387        C  0.03264878  0.84153016  0.20722844     0.36500
C388        C  0.49554129  0.83523402  0.18956909    -0.05600
C389        C  0.46034118  0.86469879  0.19126869    -0.32600
C390        C  0.46242762  0.90084870  0.20941194     0.36400
H391        H  0.06427574  0.88076401  0.23816824     0.16800
O392        O  0.06753190  0.81305436  0.20655090    -0.60100
H393        H  0.43157491  0.86062755  0.17772226     0.16800
O394        O  0.42826411  0.93018715  0.20896375    -0.60200
H395        H  0.40383200  0.91620214  0.21978813     0.43800
H396        H  0.05935410  0.78951523  0.22002784     0.43800
C397        C  0.49322782  0.64571618  0.19013669    -0.05300
C398        C  0.45707008  0.61690158  0.19157075    -0.32700
C399        C  0.45937701  0.57923000  0.20806598     0.36500
C400        C  0.49773867  0.57052478  0.22394570    -0.05600
C401        C  0.03301576  0.60014681  0.22369042    -0.32600
C402        C  0.03101814  0.63763345  0.20694108     0.36400
H403        H  0.42768133  0.62249547  0.17889367     0.16800
O404        O  0.42409925  0.55093335  0.20849811    -0.60100
H405        H  0.06289330  0.59334590  0.23551151     0.16800
O406        O  0.06662011  0.66548852  0.20661519    -0.60200
H407        H  0.05956884  0.68822970  0.22097999     0.43800
H408        H  0.42745800  0.53269947  0.19114949     0.43800
C409        C  0.00386137  0.64431051  0.94114410    -0.05300
C410        C  0.46576088  0.63735927  0.95772406    -0.32700
C411        C  0.46180955  0.60042167  0.97494341     0.36500
C412        C  0.49638507  0.56988922  0.97566921    -0.05600
C413        C  0.03489676  0.57730770  0.95969824    -0.32600
C414        C  0.03881243  0.61404871  0.94244340     0.36400
H415        H  0.43833861  0.65994712  0.95669588     0.16800
O416        O  0.42283569  0.59260592  0.98917532    -0.60100
H417        H  0.06155341  0.55378321  0.96001413     0.16800
O418        O  0.07594714  0.61876283  0.92584033    -0.60200
H419        H  0.06933279  0.60263053  0.90799704     0.43800
H420        H  0.41861243  0.61783178  0.00214073     0.43800
C421        C  0.49343765  0.90934230  0.97235351    -0.05300
C422        C  0.03314778  0.90009937  0.95819104    -0.32700
C423        C  0.03637201  0.86428697  0.93990741     0.36500
C424        C  0.99947854  0.83659482  0.93573873    -0.05600
C425        C  0.45951131  0.84628158  0.94982863    -0.32600
C426        C  0.45636539  0.88234994  0.96805518     0.36400
H427        H  0.06162816  0.92124977  0.96101768     0.16800
O428        O  0.07544784  0.85748842  0.92567302    -0.60100
H429        H  0.43047396  0.82604044  0.94661585     0.16800
O430        O  0.41646794  0.89228095  0.98043472    -0.60200
H431        H  0.41234152  0.87042666  0.99574353     0.43800
H432        H  0.07242381  0.87357338  0.90747456     0.43800
C433        C  0.48446672  0.90700206  0.03595527    -0.05300
C434        C  0.02137489  0.87941851  0.03554245    -0.32700
C435        C  0.02306428  0.84296208  0.05332642     0.36500
C436        C  0.48727009  0.83362323  0.07173611    -0.05600
C437        C  0.44994056  0.86076022  0.07144572    -0.32600
C438        C  0.44854372  0.89733184  0.05396611     0.36400
H439        H  0.04958152  0.88703418  0.02212988     0.16800
O440        O  0.06024051  0.81745351  0.05301875    -0.60100
H441        H  0.42227167  0.85460583  0.08561811     0.16800
O442        O  0.41260934  0.92444147  0.05544509    -0.60200
H443        H  0.39273518  0.91485857  0.03982391     0.43800
H444        H  0.05433103  0.79476120  0.03842615     0.43800
C445        C  0.48582002  0.64197571  0.07372718    -0.05300
C446        C  0.02468267  0.62941286  0.05935843    -0.32700
C447        C  0.02519830  0.59240156  0.04199013     0.36500
C448        C  0.48654074  0.56732663  0.03872441    -0.05600
C449        C  0.44777790  0.57949949  0.05298371    -0.32600
C450        C  0.44687840  0.61692467  0.06995356     0.36400
H451        H  0.05502752  0.64794556  0.06187583     0.16800
O452        O  0.06384078  0.58048815  0.02874423    -0.60100
H453        H  0.41795165  0.56006846  0.05067523     0.16800
O454        O  0.40815914  0.62762198  0.08353107    -0.60200
H455        H  0.39142149  0.64527130  0.06956417     0.43800
H456        H  0.07730228  0.55837866  0.04139852     0.43800
C457        C  0.34682199  0.60162997  0.44288922    -0.05300
C458        C  0.37346646  0.56822194  0.45382920    -0.32700
C459        C  0.40948946  0.57774484  0.47144491     0.36500
C460        C  0.41938083  0.62113495  0.47855718    -0.05600
C461        C  0.39206699  0.65460096  0.46866915    -0.32600
C462        C  0.35576658  0.64511228  0.45104146     0.36400
H463        H  0.36744072  0.53461731  0.44787066     0.16800
O464        O  0.43642038  0.54463450  0.48039193    -0.60100
H465        H  0.39953659  0.68813823  0.47409362     0.16800
O466        O  0.32982702  0.67861299  0.44156749    -0.60200
H467        H  0.30421221  0.67943720  0.45486270     0.43800
H468        H  0.42124690  0.53201592  0.49720742     0.43800
C469        C  0.08056622  0.62336791  0.47255852    -0.05300
C470        C  0.08255102  0.58324059  0.45835229    -0.32700
C471        C  0.11852078  0.57280992  0.44100309     0.36500
C472        C  0.15321013  0.60303031  0.43710152    -0.05600
C473        C  0.15074077  0.64387277  0.45066021    -0.32600
C474        C  0.11491817  0.65389042  0.46870130     0.36400
H475        H  0.05617073  0.55957196  0.46108045     0.16800
O476        O  0.11913438  0.53303509  0.42763503    -0.60100
H477        H  0.17695582  0.66761861  0.44769735     0.16800
O478        O  0.11314806  0.69378252  0.48183306    -0.60200
H479        H  0.13102946  0.69065076  0.49940133     0.43800
H480        H  0.10576095  0.53808853  0.40863781     0.43800
C481        C  0.35420959  0.53234372  0.33315891    -0.05300
C482        C  0.37133313  0.56169099  0.31292679    -0.32700
C483        C  0.40763109  0.55059005  0.29564751     0.36500
C484        C  0.42738560  0.50925940  0.29808646    -0.05600
C485        C  0.41030833  0.97984218  0.31813488    -0.32600
C486        C  0.37455132  0.49108823  0.33572191     0.36400
H487        H  0.35645127  0.59345147  0.31029968     0.16800
O488        O  0.42182906  0.57949090  0.27533720    -0.60100
H489        H  0.42511114  0.94796580  0.32041625     0.16800
O490        O  0.35986638  0.96122367  0.35527495    -0.60200
H491        H  0.37792133  0.96659281  0.37256686     0.43800
H492        H  0.43794328  0.60259633  0.28594380     0.43800
C493        C  0.15715278  0.53476080  0.32960318    -0.05300
C494        C  0.14006883  0.49211483  0.33075474    -0.32700
C495        C  0.10351940  0.47959723  0.31436056     0.36500
C496        C  0.08318439  0.50965974  0.29591549    -0.05600
C497        C  0.09969858  0.55240074  0.29493494    -0.32600
C498        C  0.13655163  0.56497063  0.31126478     0.36400
H499        H  0.15461711  0.46822286  0.34481873     0.16800
O500        O  0.08738456  0.93801110  0.31712613    -0.60100
H501        H  0.08443264  0.57615471  0.28118821     0.16800
O502        O  0.15143498  0.60710296  0.30945756    -0.60200
H503        H  0.17171255  0.60748661  0.29281046     0.43800
H504        H  0.06170254  0.94049139  0.33024021     0.43800
C505        C  0.08611834  0.62337162  0.53676136    -0.05300
C506        C  0.11033609  0.58529682  0.53139560    -0.32700
C507        C  0.14647678  0.57399769  0.54842341     0.36500
C508        C  0.15839801  0.60039643  0.57188659    -0.05600
C509        C  0.13478719  0.63909885  0.57676569    -0.32600
C510        C  0.09876279  0.65042823  0.55962660     0.36400
H511        H  0.10013390  0.56311381  0.51468304     0.16800
O512        O  0.16886450  0.53631597  0.54240096    -0.60100
H513        H  0.14319286  0.66009746  0.59455534     0.16800
O514        O  0.07567077  0.68778460  0.56556010    -0.60200
H515        H  0.05875458  0.68151766  0.58324997     0.43800
H516        H  0.19230812  0.54490429  0.52868510     0.43800
C517        C  0.42421161  0.61980167  0.54163341    -0.05300
C518        C  0.39009578  0.65020833  0.54522335    -0.32700
C519        C  0.35369772  0.64065794  0.56281047     0.36500
C520        C  0.35075522  0.59981665  0.57634039    -0.05600
C521        C  0.38468441  0.56938264  0.57231230    -0.32600
C522        C  0.42148954  0.57936306  0.55552680     0.36400
H523        H  0.39195464  0.68144689  0.53462047     0.16800
O524        O  0.32043472  0.67062150  0.56570886    -0.60100
H525        H  0.38307518  0.53792363  0.58266698     0.16800
O526        O  0.45428243  0.54895815  0.55221181    -0.60200
H527        H  0.47265040  0.55131027  0.56968083     0.43800
H528        H  0.33045645  0.69057151  0.58107334     0.43800
C529        C  0.00681392  0.56202088  0.78980294    -0.05300
C530        C  0.04188105  0.56774830  0.80905889    -0.32700
C531        C  0.04407425  0.60472842  0.82649347     0.36500
C532        C  0.01026988  0.63619304  0.82517394    -0.05600
C533        C  0.47552154  0.63053457  0.80559838    -0.32600
C534        C  0.47388647  0.59398530  0.78778821     0.36400
H535        H  0.06726144  0.54306046  0.81088845     0.16800
O536        O  0.07766979  0.60827336  0.84602428    -0.60100
H537        H  0.44914884  0.65427047  0.80435287     0.16800
O538        O  0.43834755  0.58826700  0.76997894    -0.60200
H539        H  0.44528197  0.60579868  0.75282911     0.43800
H540        H  0.10345220  0.61957997  0.83514613     0.43800
C541        C  0.00337915  0.89959826  0.78269394    -0.05300
C542        C  0.46989356  0.86745212  0.78178844    -0.32700
C543        C  0.47158214  0.83090790  0.79945233     0.36100
C544        C  0.00696466  0.82572346  0.81860773    -0.05600
C545        C  0.04177531  0.85596074  0.81831479    -0.32600
C546        C  0.04038017  0.89234146  0.80056954     0.36400
H547        H  0.44164294  0.87004496  0.76795591     0.16800
O548        O  0.43790708  0.80085756  0.79813384    -0.60100
H549        H  0.06943302  0.85251760  0.83281757     0.16800
O550        O  0.07421630  0.92220910  0.80219547    -0.60200
H551        H  0.09866695  0.90968600  0.79069929     0.43800
H552        H  0.44876843  0.77778781  0.78507485     0.43800
C553        C  0.07540209  0.50266441  0.71287757    -0.05300
C554        C  0.09275225  0.54494179  0.71540335    -0.32700
C555        C  0.12968242  0.55810460  0.69936247     0.36500
C556        C  0.15007620  0.52884509  0.68011595    -0.05600
C557        C  0.13201927  0.48673136  0.67729159    -0.32600
C558        C  0.09503337  0.47371735  0.69322359     0.36400
H559        H  0.07840689  0.56767279  0.73046735     0.16800
O560        O  0.14520587  0.59981932  0.70263064    -0.60100
H561        H  0.14633447  0.46365249  0.66244688     0.16800
O562        O  0.07812688  0.93266845  0.68912260    -0.60200
H563        H  0.05385253  0.93625447  0.67509066     0.43800
H564        H  0.16686100  0.59830828  0.71847061     0.43800
C565        C  0.34768210  0.53188526  0.68331568    -0.05300
C566        C  0.33967849  0.50823605  0.70821181    -0.32700
C567        C  0.37475076  0.49620990  0.72599873     0.36500
C568        C  0.41900771  0.50641763  0.71837498    -0.05600
C569        C  0.42661918  0.53114043  0.69369209    -0.32600
C570        C  0.39132250  0.54396055  0.67628321     0.36400
H571        H  0.30606783  0.49944934  0.71401858     0.16800
O572        O  0.36513974  0.47513320  0.75099094    -0.60100
H573        H  0.46006874  0.03962517  0.68740268     0.16800
O574        O  0.39979856  0.06792236  0.65224419    -0.60200
H575        H  0.40530617  0.04619322  0.63701002     0.43800
H576        H  0.36564743  0.49811918  0.76586771     0.43800
C577        C  0.00006865  0.44251925  0.76637659     0.86700
C578        C  0.95804354  0.45119771  0.74859965    -0.53600
C579        C  0.95734742  0.99105223  0.73564823     0.09600
C580        C  0.99967549  0.01820142  0.74099059     0.20500
C581        C  0.53826109  0.44906390  0.74521915    -0.54300
C582        C  0.53849580  0.98859198  0.73190450     0.09700
C583        C  0.00290152  0.48162782  0.78674127    -0.53800
C584        C  0.50321467  0.02098585  0.77357200     0.10300
H585        H  0.93111932  0.42837455  0.74584044     0.14800
H586        H  0.99975039  0.05056028  0.73054003     0.00500
H587        H  0.56409608  0.42502628  0.74215444     0.15100
H588        H  0.00466106  0.47845064  0.80977518     0.14900
O589        O  0.79553091  0.51465917  0.64709126    -0.74200
O590        O  0.70902644  0.04861970  0.59172688    -0.74300
O591        O  0.79876526  0.04871150  0.59435084    -0.74300
O592        O  0.70519040  0.51415611  0.64458882    -0.74400
O593        O  0.70468894  0.08053601  0.66367105    -0.74300
O594        O  0.79661134  0.11620915  0.61195377    -0.74300
O595        O  0.70700954  0.11501156  0.61082756    -0.74300
O596        O  0.79543478  0.08210749  0.66492848    -0.74300
Ni597      Ni  0.75213769  0.02913498  0.61881843     1.25400
Ni598      Ni  0.75086026  0.10079330  0.63859033     1.25400
C599        C  0.81073520  0.04330829  0.66442452     0.87900
C600        C  0.69345541  0.08738413  0.59226785     0.87900
C601        C  0.81320907  0.08795865  0.59491623     0.87900
C602        C  0.68872686  0.04182084  0.66210778     0.88100
O603        O  0.70900387  0.51889800  0.36655305    -0.74200
O604        O  0.79581063  0.05152636  0.42197601    -0.74300
O605        O  0.70605973  0.05251105  0.41944066    -0.74300
O606        O  0.79905566  0.51779560  0.36888763    -0.74400
O607        O  0.80125037  0.08453501  0.35067239    -0.74300
O608        O  0.70833203  0.11992924  0.40200490    -0.74300
O609        O  0.79822183  0.11861673  0.40411773    -0.74300
O610        O  0.71047609  0.08587181  0.34864613    -0.74300
Ni611      Ni  0.75244770  0.03287873  0.39481940     1.25400
Ni612      Ni  0.75470669  0.10463915  0.37564391     1.25400
C613        C  0.69431665  0.04717330  0.34894274     0.87900
C614        C  0.81157203  0.09030676  0.42216400     0.87900
C615        C  0.69135554  0.09155195  0.41880461     0.87900
C616        C  0.81619310  0.04546947  0.35169269     0.88100
C617        C  0.99189406  0.02856501  0.99141917     0.02500
C618        C  0.98659318  0.02739518  0.02124492     0.02400
C619        C  0.98309634  0.48728996  0.03506255    -0.18100
C620        C  0.98533884  0.44812450  0.01974931     0.02500
C621        C  0.99056086  0.44925068  0.98986120     0.02400
C622        C  0.99379539  0.48946290  0.97605102    -0.18100
H623        H  0.99772732  0.49033034  0.95307479     0.04500
H624        H  0.98007122  0.48656412  0.05809680     0.04500
O625        O  0.52982130  0.28410529  0.15825364    -0.74200
O626        O  0.52497960  0.19437411  0.10172185    -0.74300
O627        O  0.52615721  0.28260095  0.10070831    -0.74300
O628        O  0.52870243  0.19617710  0.15908874    -0.74400
O629        O  0.95492939  0.19650187  0.16103827    -0.74300
O630        O  0.95243940  0.28326114  0.10302503    -0.74300
O631        O  0.95130558  0.19502244  0.10379787    -0.74300
O632        O  0.95606446  0.28479972  0.16031883    -0.74300
Ni633      Ni  0.53005049  0.23931746  0.12984845     1.25400
Ni634      Ni  0.95105961  0.23994821  0.13209954     1.25400
C635        C  0.99375408  0.29940607  0.16852519     0.87900
C636        C  0.98733930  0.17920589  0.09383829     0.87900
C637        C  0.98880872  0.29769845  0.09255092     0.87900
C638        C  0.99226908  0.18164209  0.16939073     0.88100
C639        C  0.00344182  0.45025779  0.24428570     0.86700
C640        C  0.54503489  0.45764480  0.26279243    -0.53600
C641        C  0.54556909  0.99638419  0.27722212     0.09600
C642        C  0.00449597  0.02474770  0.27154334     0.20500
C643        C  0.96459924  0.45635505  0.26521458    -0.54300
C644        C  0.96446794  0.99561508  0.27909601     0.09700
C645        C  0.00205579  0.49028735  0.22488907    -0.53800
C646        C  0.00227108  0.02895789  0.23903933     0.10300
H647        H  0.57255909  0.43545510  0.26429895     0.14800
H648        H  0.00495882  0.05641403  0.28298194     0.00500
H649        H  0.93846652  0.43233118  0.26792264     0.15100
H650        H  0.00029830  0.48823192  0.20178950     0.14900
O651        O  0.96791992  0.19381240  0.91008489    -0.74200
O652        O  0.96944712  0.27619650  0.84932737    -0.74300
O653        O  0.97139725  0.18849051  0.85281454    -0.74300
O654        O  0.96574903  0.28186484  0.90667174    -0.74400
O655        O  0.53944326  0.28383965  0.90835727    -0.74300
O656        O  0.54518195  0.18998100  0.85459266    -0.74300
O657        O  0.54320543  0.27831412  0.85111711    -0.74300
O658        O  0.54169578  0.19554976  0.91170725    -0.74300
Ni659      Ni  0.96601787  0.23502733  0.87969181     1.25400
Ni660      Ni  0.54503188  0.23703965  0.88152811     1.25400
C661        C  0.50459960  0.18010385  0.92030113     0.87900
C662        C  0.50654903  0.29126027  0.84043508     0.87900
C663        C  0.50906085  0.17347222  0.84507861     0.87900
C664        C  0.50170928  0.29882281  0.91606710     0.88100
C665        C  0.96333490  0.13006467  0.52384793     0.02500
C666        C  0.96085369  0.13126101  0.49388221     0.02400
C667        C  0.99996326  0.13353968  0.47784170    -0.18100
C668        C  0.54166558  0.13200769  0.49097169     0.02500
C669        C  0.54420925  0.13131554  0.52111146     0.02400
C670        C  0.00485404  0.13182392  0.53708064    -0.18100
H671        H  0.00646859  0.12921024  0.56009768     0.04500
H672        H  0.99794303  0.13234679  0.45476787     0.04500
C673        C  0.00016657  0.40823817  0.22670058    -0.05300
C674        C  0.53472353  0.37745419  0.22556635    -0.32700
C675        C  0.53264862  0.34153121  0.20722786     0.36500
C676        C  0.99554162  0.33523572  0.18956797    -0.05600
C677        C  0.96034135  0.36470031  0.19126782    -0.32600
C678        C  0.96242771  0.40085001  0.20941127     0.36400
H679        H  0.56427516  0.38076452  0.23816810     0.16800
O680        O  0.56753187  0.31305556  0.20655023    -0.60100
H681        H  0.93157496  0.36062901  0.17772150     0.16800
O682        O  0.92826415  0.43018841  0.20896325    -0.60200
H683        H  0.90383205  0.41620322  0.21978755     0.43800
H684        H  0.55935429  0.28951647  0.22002712     0.43800
C685        C  0.99322893  0.14571666  0.19013636    -0.05300
C686        C  0.95707080  0.11690257  0.19157096    -0.32700
C687        C  0.95937793  0.07923062  0.20806583     0.36500
C688        C  0.99774014  0.07052452  0.22394476    -0.05600
C689        C  0.53301717  0.10014573  0.22368975    -0.32600
C690        C  0.53101961  0.13763274  0.20694071     0.36400
H691        H  0.92768146  0.12249717  0.17889459     0.16800
O692        O  0.92409973  0.05093456  0.20849847    -0.60100
H693        H  0.56289481  0.09334433  0.23551067     0.16800
O694        O  0.56662198  0.16548730  0.20661462    -0.60200
H695        H  0.55957160  0.18822818  0.22097999     0.43800
H696        H  0.92745810  0.03269997  0.19114991     0.43800
C697        C  0.50386166  0.14431014  0.94114407    -0.05300
C698        C  0.96575978  0.13735772  0.95772261    -0.32700
C699        C  0.96180845  0.10042006  0.97494185     0.36500
C700        C  0.99638490  0.06988877  0.97566869    -0.05600
C701        C  0.53489844  0.07730866  0.95969945    -0.32600
C702        C  0.53881399  0.11404983  0.94244470     0.36400
H703        H  0.93833683  0.15994469  0.95669369     0.16800
O704        O  0.92283389  0.09260311  0.98917269    -0.60100
H705        H  0.56155607  0.05378528  0.96001634     0.16800
O706        O  0.57595007  0.11876561  0.92584309    -0.60200
H707        H  0.56933824  0.10263300  0.90799960     0.43800
H708        H  0.91860916  0.11782860  0.00213812     0.43800
C709        C  0.99343643  0.40934282  0.97235292    -0.05300
C710        C  0.53314644  0.40010111  0.95818883    -0.32700
C711        C  0.53637066  0.36428865  0.93990527     0.36500
C712        C  0.49947798  0.33659505  0.93573792    -0.05600
C713        C  0.95951125  0.34628004  0.94982975    -0.32600
C714        C  0.95636509  0.38234863  0.96805610     0.36400
H715        H  0.56162628  0.42125250  0.96101455     0.16800
O716        O  0.57544564  0.35749141  0.92566961    -0.60100
H717        H  0.93047464  0.32603743  0.94661814     0.16800
O718        O  0.91646818  0.39227810  0.98043688    -0.60200
H719        H  0.91234275  0.37042231  0.99574506     0.43800
H720        H  0.57241968  0.37357614  0.90747136     0.43800
C721        C  0.98446545  0.40700196  0.03595466    -0.05300
C722        C  0.52137497  0.37941703  0.03554126    -0.32700
C723        C  0.52306418  0.34296049  0.05332518     0.36500
C724        C  0.98726849  0.33362285  0.07173520    -0.05600
C725        C  0.94993929  0.36076027  0.07144519    -0.32600
C726        C  0.94854263  0.39733203  0.05396573     0.36400
H727        H  0.54958158  0.38703257  0.02212863     0.16800
O728        O  0.56024018  0.31745157  0.05301736    -0.60100
H729        H  0.92227065  0.35460618  0.08561784     0.16800
O730        O  0.91260868  0.42444214  0.05544516    -0.60200
H731        H  0.89273510  0.41486125  0.03982294     0.43800
H732        H  0.55433008  0.29475898  0.03842526     0.43800
C733        C  0.98581881  0.14197644  0.07372677    -0.05300
C734        C  0.52468409  0.12941129  0.05935967    -0.32700
C735        C  0.52519951  0.09240030  0.04199107     0.36500
C736        C  0.98653932  0.06732773  0.03872368    -0.05600
C737        C  0.94777622  0.07950114  0.05298247    -0.32600
C738        C  0.94687683  0.11692617  0.06995248     0.36400
H739        H  0.55502949  0.14794281  0.06187806     0.16800
O740        O  0.56384238  0.08048582  0.02874607    -0.60100
H741        H  0.91794976  0.06007053  0.05067361     0.16800
O742        O  0.90815731  0.12762404  0.08352949    -0.60200
H743        H  0.89142073  0.14527430  0.06956255     0.43800
H744        H  0.57730212  0.05837528  0.04140043     0.43800
C745        C  0.84682195  0.10163067  0.44288927    -0.05300
C746        C  0.87346525  0.06822264  0.45383045    -0.32700
C747        C  0.90948811  0.07774572  0.47144625     0.36500
C748        C  0.91938059  0.12113601  0.47855738    -0.05600
C749        C  0.89206779  0.15460210  0.46866827    -0.32600
C750        C  0.85576743  0.14511325  0.45104055     0.36400
H751        H  0.86743879  0.03461779  0.44787277     0.16800
O752        O  0.93641802  0.04463529  0.48039436    -0.60100
H753        H  0.89953817  0.18813952  0.47409190     0.16800
O754        O  0.82982893  0.17861405  0.44156553    -0.60200
H755        H  0.80421339  0.17943917  0.45486029     0.43800
H756        H  0.92124318  0.03201725  0.49720966     0.43800
C757        C  0.58056668  0.12336875  0.47255818    -0.05300
C758        C  0.58255140  0.08324113  0.45835228    -0.32700
C759        C  0.61852122  0.07280995  0.44100321     0.36500
C760        C  0.65321066  0.10303019  0.43710138    -0.05600
C761        C  0.65074137  0.14387289  0.45065976    -0.32600
C762        C  0.61491879  0.15389102  0.46870074     0.36400
H763        H  0.55617101  0.05957265  0.46108063     0.16800
O764        O  0.61913476  0.03303483  0.42763554    -0.60100
H765        H  0.67695648  0.16761863  0.44769671     0.16800
O766        O  0.61314884  0.19378337  0.48183218    -0.60200
H767        H  0.63102976  0.19065171  0.49940066     0.43800
H768        H  0.60576125  0.03808786  0.40863825     0.43800
C769        C  0.85421043  0.03234446  0.33315841    -0.05300
C770        C  0.87133305  0.06169122  0.31292563    -0.32700
C771        C  0.90763100  0.05059025  0.29564630     0.36500
C772        C  0.92738641  0.00926011  0.29808588    -0.05600
C773        C  0.91030776  0.47984139  0.31813489    -0.32600
C774        C  0.87455311  0.99108951  0.33572200     0.36400
H775        H  0.85645044  0.09345127  0.31029804     0.16800
O776        O  0.92182810  0.07949046  0.27533535    -0.60100
H777        H  0.92511029  0.44796483  0.32041594     0.16800
O778        O  0.85986543  0.46122237  0.35527469    -0.60200
H779        H  0.87792032  0.46659082  0.37256660     0.43800
H780        H  0.93794274  0.10259628  0.28594139     0.43800
C781        C  0.65715306  0.03476093  0.32960305    -0.05300
C782        C  0.64007026  0.99211449  0.33075388    -0.32700
C783        C  0.60352071  0.97959678  0.31435986     0.36500
C784        C  0.58318461  0.00965958  0.29591544    -0.05600
C785        C  0.59969758  0.05240110  0.29493570    -0.32600
C786        C  0.63655048  0.06497121  0.31126563     0.36400
H787        H  0.65461951  0.96822222  0.34481723     0.16800
O788        O  0.58738245  0.43801138  0.31712736    -0.60100
H789        H  0.58443076  0.07615537  0.28118956     0.16800
O790        O  0.65143213  0.10710424  0.30945959    -0.60200
H791        H  0.67170939  0.10748986  0.29281232     0.43800
H792        H  0.56170027  0.44049246  0.33024115     0.43800
C793        C  0.58611886  0.12337270  0.53676096    -0.05300
C794        C  0.61033607  0.08529751  0.53139542    -0.32700
C795        C  0.64647663  0.07399815  0.54842325     0.36500
C796        C  0.65839831  0.10039709  0.57188625    -0.05600
C797        C  0.63478809  0.13909993  0.57676511    -0.32600
C798        C  0.59876377  0.15042952  0.55962599     0.36400
H799        H  0.60013349  0.06311437  0.51468302     0.16800
O800        O  0.66886367  0.03631597  0.54240106    -0.60100
H801        H  0.64319412  0.16009871  0.59455460     0.16800
O802        O  0.57567224  0.18778626  0.56555928    -0.60200
H803        H  0.55875577  0.18151966  0.58324905     0.43800
H804        H  0.69230804  0.04490390  0.52868536     0.43800
C805        C  0.92421192  0.11980196  0.54163357    -0.05300
C806        C  0.89009524  0.15020787  0.54522289    -0.32700
C807        C  0.85369707  0.14065704  0.56280980     0.36500
C808        C  0.85075529  0.09981604  0.57634013    -0.05600
C809        C  0.88468524  0.06938270  0.57231263    -0.32600
C810        C  0.92149051  0.07936359  0.55552734     0.36400
H811        H  0.89195349  0.18144618  0.53461966     0.16800
O812        O  0.82043318  0.17061979  0.56570751    -0.60100
H813        H  0.88307647  0.03792389  0.58266760     0.16800
O814        O  0.95428411  0.04895928  0.55221285    -0.60200
H815        H  0.97265147  0.05131186  0.56968199     0.43800
H816        H  0.83045410  0.19057057  0.58107192     0.43800
C817        C  0.50681405  0.06202129  0.78980250    -0.05300
C818        C  0.54188073  0.06774784  0.80905891    -0.32700
C819        C  0.54407433  0.10472790  0.82649351     0.36500
C820        C  0.51027082  0.13619330  0.82517349    -0.05600
C821        C  0.97552140  0.13053560  0.80559796    -0.32600
C822        C  0.97388605  0.09398633  0.78778781     0.36400
H823        H  0.56726034  0.04305931  0.81088890     0.16800
O824        O  0.57766918  0.10827193  0.84602489    -0.60100
H825        H  0.94914855  0.15427139  0.80435272     0.16800
O826        O  0.93834673  0.08826786  0.76997891    -0.60200
H827        H  0.94528088  0.10579936  0.75282881     0.43800
H828        H  0.60345261  0.11957709  0.83514706     0.43800
C829        C  0.50337917  0.39959724  0.78269351    -0.05300
C830        C  0.96989377  0.36745153  0.78178791    -0.32700
C831        C  0.97158231  0.33090737  0.79945188     0.36100
C832        C  0.50696482  0.32572245  0.81860721    -0.05600
C833        C  0.54177525  0.35595994  0.81831447    -0.32600
C834        C  0.54038012  0.39234057  0.80056919     0.36400
H835        H  0.94164358  0.37004412  0.76795496     0.16800
O836        O  0.93790772  0.30085654  0.79813303    -0.60100
H837        H  0.56943275  0.35251705  0.83281743     0.16800
O838        O  0.57421621  0.42220827  0.80219519    -0.60200
H839        H  0.59866660  0.40968555  0.79069883     0.43800
H840        H  0.94877024  0.27778635  0.78507476     0.43800
C841        C  0.57540219  0.00266482  0.71287764    -0.05300
C842        C  0.59275152  0.04494266  0.71540276    -0.32700
C843        C  0.62968155  0.05810555  0.69936175     0.36500
C844        C  0.65007608  0.02884561  0.68011582    -0.05600
C845        C  0.63201998  0.98673146  0.67729213    -0.32600
C846        C  0.59503418  0.97371741  0.69322417     0.36400
H847        H  0.57840558  0.06767399  0.73046631     0.16800
O848        O  0.64520403  0.09982077  0.70262910    -0.60100
H849        H  0.64633575  0.96365224  0.66244789     0.16800
O850        O  0.57812629  0.43266848  0.68912188    -0.60200
H851        H  0.55385265  0.43625483  0.67508928     0.43800
H852        H  0.66685873  0.09831108  0.71846934     0.43800
C853        C  0.84768196  0.03188403  0.68331502    -0.05300
C854        C  0.83967865  0.00823322  0.70821051    -0.32700
C855        C  0.87475094  0.99620736  0.72599747     0.36500
C856        C  0.91900777  0.00641686  0.71837431    -0.05600
C857        C  0.92661891  0.03114085  0.69369189    -0.32600
C858        C  0.89132213  0.04396079  0.67628304     0.36400
H859        H  0.80606814  0.99944525  0.71401686     0.16800
O860        O  0.86513996  0.97512929  0.75098916    -0.60100
H861        H  0.96006932  0.53962357  0.68740222     0.16800
O862        O  0.89979921  0.56792095  0.65224366    -0.60200
H863        H  0.90530790  0.54619077  0.63701009     0.43800
H864        H  0.86564557  0.99811508  0.76586640     0.43800
C865        C  0.00006883  0.94252020  0.76637655     0.86700
C866        C  0.95804411  0.95119778  0.74859912    -0.53600
C867        C  0.95734719  0.49105243  0.73564899     0.09600
C868        C  0.99967583  0.51820087  0.74099120     0.20500
C869        C  0.53826136  0.94906403  0.74521950    -0.54300
C870        C  0.53849564  0.48859194  0.73190428     0.09700
C871        C  0.00290072  0.98162915  0.78674097    -0.53800
C872        C  0.50321496  0.52098580  0.77357200     0.10300
H873        H  0.93112035  0.92837419  0.74583966     0.14800
H874        H  0.99975105  0.55055995  0.73054093     0.00500
H875        H  0.56409645  0.92502649  0.74215490     0.15100
H876        H  0.00466013  0.97845233  0.80977490     0.14900
O877        O  0.79553031  0.01465612  0.64709022    -0.74200
O878        O  0.70902680  0.54862180  0.59172777    -0.74300
O879        O  0.79876548  0.54871470  0.59435191    -0.74300
O880        O  0.70518975  0.01415432  0.64458810    -0.74400
O881        O  0.70468852  0.58053779  0.66367176    -0.74300
O882        O  0.79661123  0.61621225  0.61195493    -0.74300
O883        O  0.70700925  0.61501369  0.61082837    -0.74300
O884        O  0.79543442  0.58211041  0.66492969    -0.74300
Ni885      Ni  0.75213821  0.52913755  0.61881936     1.25400
Ni886      Ni  0.75085993  0.60079581  0.63859131     1.25400
C887        C  0.81073526  0.54331137  0.66442573     0.87900
C888        C  0.69345536  0.58738607  0.59226871     0.87900
C889        C  0.81320919  0.58796187  0.59491736     0.87900
C890        C  0.68872693  0.54182241  0.66210837     0.88100
O891        O  0.70900517  0.01889834  0.36655238    -0.74200
O892        O  0.79580992  0.55152525  0.42197631    -0.74300
O893        O  0.70605909  0.55251089  0.41944125    -0.74300
O894        O  0.79905705  0.01779677  0.36888723    -0.74400
O895        O  0.80124979  0.58453399  0.35067305    -0.74300
O896        O  0.70833139  0.61992892  0.40200524    -0.74300
O897        O  0.79822116  0.61861587  0.40411833    -0.74300
O898        O  0.71047560  0.58587131  0.34864655    -0.74300
Ni899      Ni  0.75244665  0.53287805  0.39481990     1.25400
Ni900      Ni  0.75470612  0.60463848  0.37564441     1.25400
C901        C  0.69431576  0.54717296  0.34894328     0.87900
C902        C  0.81157143  0.59030557  0.42216437     0.87900
C903        C  0.69135491  0.59155180  0.41880506     0.87900
C904        C  0.81619206  0.54546826  0.35169320     0.88100
C905        C  0.99189401  0.52856573  0.99141919     0.02500
C906        C  0.98659319  0.52739541  0.02124496     0.02400
C907        C  0.98309672  0.98728996  0.03506282    -0.18100
C908        C  0.98533950  0.94812426  0.01974985     0.02500
C909        C  0.99056151  0.94925003  0.98986172     0.02400
C910        C  0.99379579  0.98946203  0.97605126    -0.18100
H911        H  0.99772777  0.99032918  0.95307502     0.04500
H912        H  0.98007161  0.98656451  0.05809708     0.04500
O913        O  0.52982061  0.78410413  0.15825403    -0.74200
O914        O  0.52497929  0.69437425  0.10172141    -0.74300
O915        O  0.52615729  0.78260127  0.10070873    -0.74300
O916        O  0.52870112  0.69617611  0.15908830    -0.74400
O917        O  0.95492957  0.69650134  0.16103865    -0.74300
O918        O  0.95244022  0.78326116  0.10302582    -0.74300
O919        O  0.95130601  0.69502242  0.10379824    -0.74300
O920        O  0.95606509  0.78479898  0.16031963    -0.74300
Ni921      Ni  0.53004993  0.73931701  0.12984842     1.25400
Ni922      Ni  0.95106013  0.73994791  0.13210011     1.25400
C923        C  0.99375470  0.79940499  0.16852626     0.87900
C924        C  0.98733971  0.67920581  0.09383868     0.87900
C925        C  0.98880963  0.79769854  0.09255189     0.87900
C926        C  0.99226914  0.68164142  0.16939120     0.88100
C927        C  0.00344258  0.95025771  0.24428569     0.86700
C928        C  0.54503510  0.95764405  0.26279219    -0.53600
C929        C  0.54556864  0.49638492  0.27722234     0.09600
C930        C  0.00449524  0.52474704  0.27154421     0.20500
C931        C  0.96459989  0.95635566  0.26521437    -0.54300
C932        C  0.96446728  0.49561412  0.27909669     0.09700
C933        C  0.00205685  0.99028679  0.22488857    -0.53800
C934        C  0.00227001  0.52895803  0.23904027     0.10300
H935        H  0.57255938  0.93545443  0.26429839     0.14800
H936        H  0.00495826  0.55641307  0.28298314     0.00500
H937        H  0.93846718  0.93233186  0.26792277     0.15100
H938        H  0.00029952  0.98823073  0.20178901     0.14900
O939        O  0.96792025  0.69381297  0.91008494    -0.74200
O940        O  0.96944719  0.77619668  0.84932710    -0.74300
O941        O  0.97139717  0.68849047  0.85281463    -0.74300
O942        O  0.96574935  0.78186532  0.90667145    -0.74400
O943        O  0.53944362  0.78383928  0.90835777    -0.74300
O944        O  0.54518136  0.68998073  0.85459303    -0.74300
O945        O  0.54320560  0.77831400  0.85111754    -0.74300
O946        O  0.54169523  0.69554941  0.91170761    -0.74300
Ni947      Ni  0.96601803  0.73502764  0.87969168     1.25400
Ni948      Ni  0.54503173  0.73703935  0.88152851     1.25400
C949        C  0.50459894  0.68010380  0.92030154     0.87900
C950        C  0.50654923  0.79126043  0.84043561     0.87900
C951        C  0.50906016  0.67347207  0.84507903     0.87900
C952        C  0.50170981  0.79882270  0.91606773     0.88100
C953        C  0.96333449  0.63006413  0.52384769     0.02500
C954        C  0.96085354  0.63125955  0.49388198     0.02400
C955        C  0.99996320  0.63353792  0.47784160    -0.18100
C956        C  0.54166525  0.63200772  0.49097220     0.02500
C957        C  0.54420892  0.63131572  0.52111198     0.02400
C958        C  0.00485352  0.63182264  0.53708054    -0.18100
H959        H  0.00646775  0.62920874  0.56009757     0.04500
H960        H  0.99794311  0.63234483  0.45476776     0.04500
C961        C  0.00016717  0.90823750  0.22670119    -0.05300
C962        C  0.53472339  0.87745317  0.22556642    -0.32700
C963        C  0.53264819  0.84152993  0.20722816     0.36500
C964        C  0.99554207  0.83523440  0.18956919    -0.05600
C965        C  0.96034211  0.86469937  0.19126854    -0.32600
C966        C  0.96242848  0.90084929  0.20941176     0.36400
H967        H  0.56427533  0.88076373  0.23816785     0.16800
O968        O  0.56753159  0.81305450  0.20655029    -0.60100
H969        H  0.93157599  0.86062824  0.17772197     0.16800
O970        O  0.92826504  0.93018782  0.20896340    -0.60200
H971        H  0.90383294  0.91620303  0.21978774     0.43800
H972        H  0.55935427  0.78951516  0.22002744     0.43800
C973        C  0.99322867  0.64571635  0.19013706    -0.05300
C974        C  0.95707000  0.61690299  0.19157219    -0.32700
C975        C  0.95937668  0.57923140  0.20806741     0.36500
C976        C  0.99773906  0.57052491  0.22394607    -0.05600
C977        C  0.53301426  0.60014799  0.22369112    -0.32600
C978        C  0.53101640  0.63763459  0.20694177     0.36400
H979        H  0.92768057  0.62249782  0.17889595     0.16800
O980        O  0.92409800  0.55093592  0.20850052    -0.60100
H981        H  0.56289124  0.59334816  0.23551303     0.16800
O982        O  0.56661734  0.66549095  0.20661692    -0.60200
H983        H  0.55956376  0.68823247  0.22098129     0.43800
H984        H  0.92745574  0.53270101  0.19115216     0.43800
C985        C  0.50386087  0.64431008  0.94114444    -0.05300
C986        C  0.96576169  0.63736020  0.95772405    -0.32700
C987        C  0.96181020  0.60042263  0.97494338     0.36500
C988        C  0.99638533  0.56988973  0.97566889    -0.05600
C989        C  0.53489671  0.57730766  0.95969890    -0.32600
C990        C  0.53881229  0.61404872  0.94244410     0.36400
H991        H  0.93833970  0.65994842  0.95669614     0.16800
O992        O  0.92283645  0.59260729  0.98917550    -0.60100
H993        H  0.56155364  0.55378349  0.96001502     0.16800
O994        O  0.57594734  0.61876329  0.92584140    -0.60200
H995        H  0.56933387  0.60263053  0.90799824     0.43800
H996        H  0.91861335  0.61783352  0.00214074     0.43800
C997        C  0.99343712  0.90934205  0.97235362    -0.05300
C998        C  0.53314859  0.90009882  0.95819149    -0.32700
C999        C  0.53637275  0.86428625  0.93990799     0.36500
C1000       C  0.49947886  0.83659477  0.93573881    -0.05600
C1001       C  0.95951125  0.84628082  0.94982908    -0.32600
C1002       C  0.95636521  0.88234908  0.96805571     0.36400
H1003       H  0.56162929  0.92124869  0.96101852     0.16800
O1004       O  0.57544900  0.85748680  0.92567426    -0.60100
H1005       H  0.93047418  0.82603916  0.94661664     0.16800
O1006       O  0.91646791  0.89227949  0.98043565    -0.60200
H1007       H  0.91234203  0.87042483  0.99574445     0.43800
H1008       H  0.57242615  0.87357186  0.90747582     0.43800
C1009       C  0.98446629  0.90700195  0.03595547    -0.05300
C1010       C  0.52137569  0.87941908  0.03554261    -0.32700
C1011       C  0.52306514  0.84296265  0.05332659     0.36500
C1012       C  0.98726955  0.83362313  0.07173629    -0.05600
C1013       C  0.94994033  0.86076053  0.07144624    -0.32600
C1014       C  0.94854356  0.89733217  0.05396666     0.36400
H1015       H  0.54958253  0.88703511  0.02213031     0.16800
O1016       O  0.56024170  0.81745450  0.05301923    -0.60100
H1017       H  0.92227170  0.85460649  0.08561891     0.16800
O1018       O  0.91260961  0.92444226  0.05544608    -0.60200
H1019       H  0.89273669  0.91486231  0.03982328     0.43800
H1020       H  0.55433283  0.79476223  0.03842673     0.43800
C1021       C  0.98581913  0.64197634  0.07372719    -0.05300
C1022       C  0.52468380  0.62941185  0.05935880    -0.32700
C1023       C  0.52519955  0.59240037  0.04199065     0.36500
C1024       C  0.98653958  0.56732761  0.03872410    -0.05600
C1025       C  0.94777690  0.57950022  0.05298369    -0.32600
C1026       C  0.94687750  0.61692527  0.06995368     0.36400
H1027       H  0.55502869  0.64794445  0.06187634     0.16800
O1028       O  0.56384216  0.58048668  0.02874503    -0.60100
H1029       H  0.91795069  0.56006910  0.05067534     0.16800
O1030       O  0.90815837  0.62762240  0.08353142    -0.60200
H1031       H  0.89142061  0.64527186  0.06956472     0.43800
H1032       H  0.57730326  0.55837698  0.04139943     0.43800
C1033       C  0.84682173  0.60162888  0.44288934    -0.05300
C1034       C  0.87346863  0.56822114  0.45382718    -0.32700
C1035       C  0.90949171  0.57774410  0.47144276     0.36500
C1036       C  0.91938064  0.62113395  0.47855713    -0.05600
C1037       C  0.89206425  0.65459953  0.46867135    -0.32600
C1038       C  0.85576382  0.64511075  0.45104367     0.36400
H1039       H  0.86744471  0.53461687  0.44786699     0.16800
O1040       O  0.93642497  0.54463429  0.48038768    -0.60100
H1041       H  0.89953191  0.68813659  0.47409747     0.16800
O1042       O  0.82982167  0.67861094  0.44157183    -0.60200
H1043       H  0.80420679  0.67943130  0.45486711     0.43800
H1044       H  0.92125309  0.53201320  0.49720306     0.43800
C1045       C  0.58056631  0.62336878  0.47255875    -0.05300
C1046       C  0.58255206  0.58324022  0.45835410    -0.32700
C1047       C  0.61852178  0.57280900  0.44100501     0.36500
C1048       C  0.65321006  0.60303016  0.43710183    -0.05600
C1049       C  0.65073959  0.64387384  0.45065889    -0.32600
C1050       C  0.61491710  0.65389204  0.46869993     0.36400
H1051       H  0.55617256  0.55957106  0.46108346     0.16800
O1052       O  0.61913634  0.53303288  0.42763863    -0.60100
H1053       H  0.67695371  0.66762031  0.44769478     0.16800
O1054       O  0.61314598  0.69378533  0.48183006    -0.60200
H1055       H  0.63102486  0.69065482  0.49939940     0.43800
H1056       H  0.60576270  0.53808408  0.40864125     0.43800
C1057       C  0.85420929  0.53234307  0.33315893    -0.05300
C1058       C  0.87133328  0.56169058  0.31292710    -0.32700
C1059       C  0.90763132  0.55058970  0.29564787     0.36500
C1060       C  0.92738552  0.50925885  0.29808654    -0.05600
C1061       C  0.91031010  0.97984347  0.31813522    -0.32600
C1062       C  0.87455062  0.49108734  0.33572161     0.36400
H1063       H  0.85645172  0.59345125  0.31030022     0.16800
O1064       O  0.92182968  0.57949085  0.27533785    -0.60100
H1065       H  0.92511365  0.94796748  0.32041695     0.16800
O1066       O  0.85986939  0.96122538  0.35527606    -0.60200
H1067       H  0.87792448  0.96659586  0.37256787     0.43800
H1068       H  0.93794386  0.60259610  0.28594475     0.43800
C1069       C  0.65715216  0.53476080  0.32960361    -0.05300
C1070       C  0.64006736  0.49211518  0.33075564    -0.32700
C1071       C  0.60351787  0.47959782  0.31436145     0.36500
C1072       C  0.58318378  0.50966018  0.29591587    -0.05600
C1073       C  0.59969855  0.55240093  0.29493505    -0.32600
C1074       C  0.63655160  0.56497061  0.31126493     0.36400
H1075       H  0.65461503  0.46822333  0.34481997     0.16800
O1076       O  0.58738718  0.93800950  0.31712491    -0.60100
H1077       H  0.58443313  0.57615483  0.28118806     0.16800
O1078       O  0.65143552  0.60710270  0.30945748    -0.60200
H1079       H  0.67171358  0.60748574  0.29281036     0.43800
H1080       H  0.56170538  0.94048871  0.33023918     0.43800
C1081       C  0.58611860  0.62337343  0.53676155    -0.05300
C1082       C  0.61033596  0.58529825  0.53139630    -0.32700
C1083       C  0.64647651  0.57399927  0.54842424     0.36500
C1084       C  0.65839809  0.60039858  0.57188708    -0.05600
C1085       C  0.63478757  0.63910132  0.57676575    -0.32600
C1086       C  0.59876323  0.65043052  0.55962650     0.36400
H1087       H  0.60013345  0.56311475  0.51468410     0.16800
O1088       O  0.66886361  0.53631701  0.54240233    -0.60100
H1089       H  0.64319341  0.66010032  0.59455516     0.16800
O1090       O  0.57567137  0.68778712  0.56555964    -0.60200
H1091       H  0.55875468  0.68152042  0.58324939     0.43800
H1092       H  0.69230773  0.54490466  0.52868640     0.43800
C1093       C  0.92421133  0.61980245  0.54163330    -0.05300
C1094       C  0.89009800  0.65021122  0.54522547    -0.32700
C1095       C  0.85370025  0.64066157  0.56281305     0.36500
C1096       C  0.85075553  0.59981900  0.57634119    -0.05600
C1097       C  0.88468245  0.56938312  0.57231100    -0.32600
C1098       C  0.92148722  0.57936266  0.55552497     0.36400
H1099       H  0.89195863  0.68145081  0.53462400     0.16800
O1100       O  0.82043975  0.67062734  0.56571368    -0.60100
H1101       H  0.88307178  0.53792320  0.58266442     0.16800
O1102       O  0.95427789  0.54895594  0.55220800    -0.60200
H1103       H  0.97264773  0.55130615  0.56967627     0.43800
H1104       H  0.83046365  0.69057453  0.58107897     0.43800
C1105       C  0.50681406  0.56202115  0.78980270    -0.05300
C1106       C  0.54187991  0.56774720  0.80905980    -0.32700
C1107       C  0.54407317  0.60472713  0.82649454     0.36500
C1108       C  0.51027009  0.63619294  0.82517403    -0.05600
C1109       C  0.97551987  0.63053309  0.80559953    -0.32600
C1110       C  0.97388473  0.59398358  0.78778960     0.36400
H1111       H  0.56725920  0.54305842  0.81089018     0.16800
O1112       O  0.57766731  0.60827074  0.84602646    -0.60100
H1113       H  0.94914605  0.65426790  0.80435483     0.16800
O1114       O  0.93834439  0.58826356  0.76998175    -0.60200
H1115       H  0.94527718  0.60579423  0.75283107     0.43800
H1116       H  0.60345101  0.61957627  0.83514918     0.43800
C1117       C  0.50337920  0.89959744  0.78269392    -0.05300
C1118       C  0.96989400  0.86745245  0.78178794    -0.32700
C1119       C  0.97158249  0.83090820  0.79945182     0.36100
C1120       C  0.50696491  0.82572269  0.81860774    -0.05600
C1121       C  0.54177601  0.85595945  0.81831426    -0.32600
C1122       C  0.54038073  0.89234020  0.80056903     0.36400
H1123       H  0.94164394  0.87004482  0.76795489     0.16800
O1124       O  0.93790806  0.80085724  0.79813272    -0.60100
H1125       H  0.56943415  0.85251598  0.83281665     0.16800
O1126       O  0.57421726  0.92220749  0.80219453    -0.60200
H1127       H  0.59866748  0.90968398  0.79069845     0.43800
H1128       H  0.94877026  0.77778791  0.78507364     0.43800
C1129       C  0.57540207  0.50266503  0.71287754    -0.05300
C1130       C  0.59275120  0.54494289  0.71540298    -0.32700
C1131       C  0.62968120  0.55810621  0.69936215     0.36500
C1132       C  0.65007601  0.52884666  0.68011611    -0.05600
C1133       C  0.63202007  0.48673248  0.67729203    -0.32600
C1134       C  0.59503421  0.47371801  0.69322390     0.36400
H1135       H  0.57840512  0.56767394  0.73046666     0.16800
O1136       O  0.64520342  0.59982146  0.70262980    -0.60100
H1137       H  0.64633601  0.46365358  0.66244764     0.16800
O1138       O  0.57812615  0.93266785  0.68912249    -0.60200
H1139       H  0.55385175  0.93625415  0.67509041     0.43800
H1140       H  0.66685863  0.59831150  0.71846970     0.43800
C1141       C  0.84768186  0.53188721  0.68331648    -0.05300
C1142       C  0.83967838  0.50823599  0.70821181    -0.32700
C1143       C  0.87475060  0.49620924  0.72599860     0.36500
C1144       C  0.91900755  0.50641817  0.71837540    -0.05600
C1145       C  0.92661884  0.53114288  0.69369329    -0.32600
C1146       C  0.89132215  0.54396377  0.67628465     0.36400
H1147       H  0.80606779  0.49944821  0.71401809     0.16800
O1148       O  0.86513946  0.47513077  0.75099013    -0.60100
H1149       H  0.96006933  0.03962179  0.68740081     0.16800
O1150       O  0.89979895  0.06791730  0.65224174    -0.60200
H1151       H  0.90530949  0.04618675  0.63700876     0.43800
H1152       H  0.86564613  0.49811601  0.76586757     0.43800
loop_ 
_geom_bond_atom_site_label_1 
_geom_bond_atom_site_label_2 
_geom_bond_distance 
_geom_bond_site_symmetry_2 
_ccdc_geom_bond_type 
C1            C2   1.544       .  S
C1            C7   1.535       .  S
C1          C581   1.534       .  S
C1          C829   1.530       .  S
C2            H9   1.079       .  S
C2          C291   1.369       .  D
C3            C4   1.544   1_565  S
C3          C290   1.369       .  D
C3          C280   1.493   1_565  S
C4          C584   1.535       .  S
C4          C582   1.545   1_545  S
C4           H10   1.110       .  S
C5          C577   1.534       .  S
C5           H11   1.085       .  S
C5          C294   1.367       .  D
C6          C580   1.545   1_465  S
C6          C293   1.367       .  D
C6          C265   1.490   1_565  S
C7           H12   1.087       .  S
C7          C872   1.359       .  D
C8          C580   1.535   1_455  S
C8          C871   1.359   1_545  D
C8          C241   1.475       .  S
O13        Ni309   1.920       .  S
O13         C311   1.281       .  A
O14         Ni21   1.919       .  S
O14          C24   1.282       .  A
O15         Ni21   1.912       .  S
O15          C25   1.281       .  A
O16        Ni309   1.917       .  S
O16         C314   1.282       .  A
O17         Ni22   1.926       .  S
O17          C26   1.283       .  A
O18         Ni22   1.920       .  S
O18          C25   1.281       .  A
O19         Ni22   1.911       .  S
O19          C24   1.281       .  A
O20         Ni22   1.919       .  S
O20          C23   1.280       .  A
Ni21        O301   1.920       .  S
Ni21        O304   1.917       .  S
Ni21        Ni22   2.387       .  S
C23         O301   1.281       .  A
C23         C277   1.470       .  S
C24         C220   1.484       .  S
C25         C232   1.474       .  S
C26         O304   1.282       .  A
C26         C268   1.493       .  S
O27        Ni323   1.914       .  S
O27         C325   1.281       .  A
O28         Ni35   1.913       .  S
O28          C38   1.281       .  A
O29         Ni35   1.913       .  S
O29          C39   1.281       .  A
O30        Ni323   1.917       .  S
O30         C328   1.281       .  A
O31         Ni36   1.931       .  S
O31          C40   1.285       .  A
O32         Ni36   1.926       .  S
O32          C39   1.282       .  A
O33         Ni36   1.922       .  S
O33          C38   1.282       .  A
O34         Ni36   1.928       .  S
O34          C37   1.283       .  A
Ni35        O315   1.914       .  S
Ni35        O318   1.917       .  S
Ni35        Ni36   2.384       .  S
C37         O315   1.281       .  A
C37         C205   1.492       .  S
C38         C169   1.482       .  S
C39         C184   1.479       .  S
C40         O318   1.281       .  A
C40         C193   1.495       .  S
C41         C124   1.476       .  S
C41          C42   1.409   1_556  A
C41         C334   1.401   1_545  A
C42         C160   1.474       .  S
C42         C331   1.397   1_545  A
C43          C44   1.401       .  A
C43         C330   1.397       .  A
C43          H48   1.085       .  S
C44         C145   1.476       .  S
C44          C45   1.412   1_554  A
C45         C133   1.477       .  S
C45          C46   1.400       .  A
C46         C329   1.401       .  A
C46          H47   1.085       .  S
O49         Ni57   1.913       .  S
O49         C635   1.281   1_455  A
O50         Ni57   1.913       .  S
O50         C636   1.281   1_455  A
O51         Ni57   1.914       .  S
O51         C637   1.280   1_455  A
O52         Ni57   1.911       .  S
O52         C638   1.280   1_455  A
O53         Ni58   1.911       .  S
O53          C62   1.280       .  A
O54         Ni58   1.909       .  S
O54          C61   1.281       .  A
O55         Ni58   1.912       .  S
O55          C60   1.281       .  A
O56         Ni58   1.914       .  S
O56          C59   1.281       .  A
Ni57       Ni634   2.387   1_455  S
Ni58       Ni633   2.387       .  S
C59         O625   1.281       .  A
C59         C100   1.477       .  S
C60         O626   1.281       .  A
C60         C157   1.481       .  S
C61         O627   1.280       .  A
C61         C148   1.477       .  S
C62         O628   1.280       .  A
C62         C109   1.474       .  S
C63          C69   1.533       .  S
C63          C67   1.540       .  S
C63         C640   1.544       .  S
C63          C97   1.533       .  S
C64         C639   1.544       .  S
C64          H71   1.079       .  S
C64         C353   1.368       .  D
C65         C642   1.542   1_565  S
C65         C352   1.368       .  D
C65         C208   1.491   1_565  S
C66          C70   1.533       .  S
C66          C68   1.543   1_545  S
C66         C641   1.542   1_545  S
C66          H72   1.110       .  S
C67          H73   1.086       .  S
C67         C356   1.369       .  D
C68         C355   1.369       .  D
C68         C196   1.491   1_565  S
C69          H74   1.087       .  S
C69         C358   1.359       .  D
C70         C357   1.359   1_545  D
C70         C112   1.469       .  S
O75         Ni83   1.911       .  S
O75         C661   1.281       .  A
O76         Ni83   1.910       .  S
O76         C662   1.280       .  A
O77         Ni83   1.911       .  S
O77         C663   1.281       .  A
O78         Ni83   1.914       .  S
O78         C664   1.281       .  A
O79         Ni84   1.916       .  S
O79          C88   1.282       .  A
O80         Ni84   1.917       .  S
O80          C87   1.281       .  A
O81         Ni84   1.913       .  S
O81          C86   1.281       .  A
O82         Ni84   1.910       .  S
O82          C85   1.280       .  A
Ni83       Ni660   2.388       .  S
Ni84       Ni659   2.388   1_455  S
C85         O651   1.281   1_455  A
C85         C121   1.474       .  S
C86         O652   1.280   1_455  A
C86         C256   1.475       .  S
C87         O653   1.281   1_455  A
C87         C244   1.476       .  S
C88         O654   1.281   1_455  A
C88         C136   1.482   1_455  S
C89         C229   1.479       .  S
C89          C90   1.409       .  A
C89          C94   1.401       .  A
C90         C172   1.477       .  S
C90          C91   1.401       .  A
C91         C668   1.404       .  A
C91          H96   1.085       .  S
C92         C181   1.482       .  S
C92          C93   1.417       .  A
C92         C667   1.404   1_455  A
C93         C217   1.485       .  S
C93         C670   1.404       .  A
C94         C669   1.404       .  A
C94          H95   1.084       .  S
C97         C102   1.417       .  A
C97         C674   1.412       .  A
C98          C99   1.399       .  A
C98         C673   1.412       .  A
C98         H103   1.075       .  S
C99         C676   1.407   1_455  A
C99         O104   1.372       .  S
C100        C101   1.401       .  A
C100        C675   1.407       .  A
C101        C102   1.399       .  A
C101        H105   1.084       .  S
C102        O106   1.373       .  S
O104        H108   0.992       .  S
O106        H107   0.992       .  S
C109        C110   1.404       .  A
C109        C690   1.411       .  A
C110        C111   1.396       .  A
C110        H115   1.084       .  S
C111        C112   1.405       .  A
C111        O116   1.372       .  S
C112        C689   1.398       .  A
C113        C114   1.398       .  A
C113        C688   1.398   1_455  A
C113        H117   1.081       .  S
C114        C685   1.411   1_455  A
C114        O118   1.371       .  S
O116        H120   0.992       .  S
O118        H119   0.993       .  S
C121        C126   1.411       .  A
C121        C698   1.404   1_455  A
C122        C123   1.399       .  A
C122        C697   1.404       .  A
C122        H127   1.084       .  S
C123        C124   1.407       .  A
C123        O128   1.373       .  S
C124        C701   1.401       .  A
C125        C126   1.395       .  A
C125        C700   1.401   1_455  A
C125        H129   1.084       .  S
C126        O130   1.372       .  S
O128        H132   0.992   1_556  S
O130        H131   0.992       .  S
C133        C138   1.405       .  A
C133        C710   1.400       .  A
C134        C135   1.397       .  A
C134        C709   1.400   1_455  A
C134        H139   1.084       .  S
C135        C136   1.412   1_455  A
C135        O140   1.371       .  S
C136        C713   1.408       .  A
C137        C138   1.401       .  A
C137        C712   1.408       .  A
C137        H141   1.083       .  S
C138        O142   1.372       .  S
O140        H144   0.992       .  S
O142        H143   0.992       .  S
C145        C150   1.405       .  A
C145        C722   1.403       .  A
C146        C147   1.400       .  A
C146        C721   1.403   1_455  A
C146        H151   1.084       .  S
C147        C724   1.412   1_455  A
C147        O152   1.372       .  S
C148        C149   1.405       .  A
C148        C723   1.412       .  A
C149        C150   1.394       .  A
C149        H153   1.083       .  S
C150        O154   1.372       .  S
O152        H156   0.992       .  S
O154        H155   0.991       .  S
C157        C162   1.414       .  A
C157        C734   1.407       .  A
C158        C159   1.397       .  A
C158        C733   1.407   1_455  A
C158        H163   1.083       .  S
C159        C736   1.404   1_455  A
C159        O164   1.372       .  S
C160        C161   1.399       .  A
C160        C735   1.404       .  A
C161        C162   1.397       .  A
C161        H165   1.084       .  S
C162        O166   1.371       .  S
O164        H168   0.992       .  S
O166        H167   0.992       .  S
C169        C170   1.405       .  A
C169        C174   1.413       .  A
C170        C171   1.397       .  A
C170        H175   1.083       .  S
C171        C172   1.404       .  A
C171        O176   1.372       .  S
C172        C173   1.401       .  A
C173        C174   1.403       .  A
C173        H177   1.083       .  S
C174        O178   1.371       .  S
O176        H180   0.991       .  S
O178        H179   0.993       .  S
C181        C182   1.401       .  A
C181        C186   1.407       .  A
C182        C183   1.394       .  A
C182        H187   1.084       .  S
C183        C184   1.409       .  A
C183        O188   1.372       .  S
C184        C185   1.407       .  A
C185        C186   1.407       .  A
C185        H189   1.083       .  S
C186        O190   1.371       .  S
O188        H192   0.992       .  S
O190        H191   0.991       .  S
C193        C194   1.408       .  A
C193        C198   1.416   1_545  A
C194        C195   1.405       .  A
C194        H199   1.083       .  S
C195        C196   1.410       .  A
C195        O200   1.371       .  S
C196        C485   1.403   1_545  A
C197        C484   1.403       .  A
C197        C486   1.402       .  A
C197        H201   1.084       .  S
C198        C485   1.402       .  A
C198        O490   1.371       .  S
O200        H204   0.992       .  S
O202        C486   1.371       .  S
O202        H203   0.991       .  S
C205        C206   1.407   1_545  A
C205        C210   1.414       .  A
C206        C207   1.398       .  A
C206        H211   1.083       .  S
C207        C208   1.410   1_565  A
C207        O500   1.372       .  S
C208        C209   1.403       .  A
C209        C210   1.404       .  A
C209        H213   1.080       .  S
C210        O214   1.371       .  S
O212        C495   1.372       .  S
O212        H216   0.992       .  S
O214        H215   0.992       .  S
C217        C218   1.404       .  A
C217        C222   1.408       .  A
C218        C219   1.399       .  A
C218        H223   1.082       .  S
C219        C220   1.412       .  A
C219        O224   1.371       .  S
C220        C221   1.407       .  A
C221        C222   1.399       .  A
C221        H225   1.083       .  S
C222        O226   1.373       .  S
O224        H228   0.992       .  S
O226        H227   0.993       .  S
C229        C230   1.403       .  A
C229        C234   1.407       .  A
C230        C231   1.404       .  A
C230        H235   1.083       .  S
C231        C232   1.410       .  A
C231        O236   1.371       .  S
C232        C233   1.402       .  A
C233        C234   1.395       .  A
C233        H237   1.084       .  S
C234        O238   1.372       .  S
O236        H240   0.992       .  S
O238        H239   0.993       .  S
C241        C242   1.403       .  A
C241        C822   1.404   1_455  A
C242        C243   1.399       .  A
C242        H247   1.084       .  S
C243        C244   1.410       .  A
C243        O248   1.372       .  S
C244        C821   1.405   1_455  A
C245        C246   1.398       .  A
C245        C820   1.405       .  A
C245        H249   1.084       .  S
C246        C817   1.404       .  A
C246        O250   1.371       .  S
O248        H252   0.992       .  S
O250        H251   0.991       .  S
C253        C577   1.530       .  S
C253        C258   1.417       .  A
C253        C830   1.411   1_455  A
C254        C255   1.398       .  A
C254        C829   1.411       .  A
C254        H259   1.076       .  S
C255        C832   1.407       .  A
C255        O260   1.372       .  S
C256        C257   1.400       .  A
C256        C831   1.407   1_455  A
C257        C258   1.396       .  A
C257        H261   1.084       .  S
C258        O262   1.373       .  S
O260        H264   0.992       .  S
O262        H263   0.992       .  S
C265        C266   1.403       .  A
C265        C270   1.411   1_545  A
C266        C267   1.403       .  A
C266        H271   1.083       .  S
C267        C268   1.414       .  A
C267        O272   1.371       .  S
C268        C269   1.408   1_545  A
C269        C270   1.401       .  A
C269        H273   1.083       .  S
C270        O562   1.372       .  S
O272        H276   0.992       .  S
O274        C558   1.372       .  S
O274        H275   0.993       .  S
C277        C278   1.398       .  A
C277        C282   1.407       .  A
C278        C279   1.401   1_545  A
C278        H283   1.084   1_545  S
C279        C280   1.417   1_565  A
C279        O284   1.371       .  S
C280        C281   1.405       .  A
C281        C282   1.402       .  A
C281        H573   1.083       .  S
C282        O574   1.372       .  S
O284        H288   0.992       .  S
H285        C569   1.083       .  S
O286        C570   1.372       .  S
O286        H287   0.991       .  S
C289        C290   1.544       .  S
C289        C295   1.535       .  S
C289        C869   1.534       .  S
C289       C1117   1.530       .  S
C290        H297   1.079       .  S
C291        C292   1.544       .  S
C291        C568   1.493       .  S
C292        C872   1.535       .  S
C292        C870   1.545       .  S
C292        H298   1.110       .  S
C293        C865   1.534       .  S
C293        H299   1.085       .  S
C294        C868   1.545   1_455  S
C294        C553   1.490       .  S
C295        H300   1.087       .  S
C295        C584   1.359   1_565  D
C296        C868   1.535   1_455  S
C296        C583   1.359       .  D
C296        C529   1.475       .  S
O302       Ni309   1.919       .  S
O302        C312   1.282       .  A
O303       Ni309   1.912       .  S
O303        C313   1.281       .  A
O305       Ni310   1.926       .  S
O305        C314   1.283       .  A
O306       Ni310   1.920       .  S
O306        C313   1.281       .  A
O307       Ni310   1.911       .  S
O307        C312   1.281       .  A
O308       Ni310   1.919       .  S
O308        C311   1.280       .  A
Ni309      Ni310   2.387       .  S
C311        C565   1.470       .  S
C312        C508   1.484       .  S
C313        C520   1.474       .  S
C314        C556   1.493       .  S
O316       Ni323   1.913       .  S
O316        C326   1.281       .  A
O317       Ni323   1.913       .  S
O317        C327   1.281       .  A
O319       Ni324   1.931       .  S
O319        C328   1.285       .  A
O320       Ni324   1.926       .  S
O320        C327   1.282       .  A
O321       Ni324   1.922       .  S
O321        C326   1.282       .  A
O322       Ni324   1.928       .  S
O322        C325   1.283       .  A
Ni323      Ni324   2.384       .  S
C325        C493   1.492       .  S
C326        C457   1.482       .  S
C327        C472   1.479       .  S
C328        C481   1.495       .  S
C329        C412   1.476       .  S
C329        C330   1.409   1_556  A
C330        C448   1.474       .  S
C331        C332   1.401       .  A
C331        H336   1.085       .  S
C332        C433   1.476       .  S
C332        C333   1.412   1_554  A
C333        C421   1.477       .  S
C333        C334   1.400       .  A
C334        H335   1.085       .  S
O337       Ni345   1.913       .  S
O337        C923   1.281   1_455  A
O338       Ni345   1.913       .  S
O338        C924   1.281   1_455  A
O339       Ni345   1.914       .  S
O339        C925   1.280   1_455  A
O340       Ni345   1.911       .  S
O340        C926   1.280   1_455  A
O341       Ni346   1.911       .  S
O341        C350   1.280       .  A
O342       Ni346   1.909       .  S
O342        C349   1.281       .  A
O343       Ni346   1.912       .  S
O343        C348   1.281       .  A
O344       Ni346   1.914       .  S
O344        C347   1.281       .  A
Ni345      Ni922   2.387   1_455  S
Ni346      Ni921   2.387       .  S
C347        O913   1.281       .  A
C347        C388   1.477       .  S
C348        O914   1.281       .  A
C348        C445   1.481       .  S
C349        O915   1.280       .  A
C349        C436   1.477       .  S
C350        O916   1.280       .  A
C350        C397   1.474       .  S
C351        C928   1.544       .  S
C351        C357   1.533       .  S
C351        C355   1.540       .  S
C351        C385   1.533       .  S
C352        C927   1.544       .  S
C352        H359   1.079       .  S
C353        C930   1.542       .  S
C353        C496   1.491       .  S
C354        C929   1.542       .  S
C354        C358   1.533       .  S
C354        C356   1.543       .  S
C354        H360   1.110       .  S
C355        H361   1.086       .  S
C356        C484   1.491       .  S
C357        H362   1.087       .  S
C358        C400   1.469       .  S
O363       Ni371   1.911       .  S
O363        C949   1.281       .  A
O364       Ni371   1.910       .  S
O364        C950   1.280       .  A
O365       Ni371   1.911       .  S
O365        C951   1.281       .  A
O366       Ni371   1.914       .  S
O366        C952   1.281       .  A
O367       Ni372   1.916       .  S
O367        C376   1.282       .  A
O368       Ni372   1.917       .  S
O368        C375   1.281       .  A
O369       Ni372   1.913       .  S
O369        C374   1.281       .  A
O370       Ni372   1.910       .  S
O370        C373   1.280       .  A
Ni371      Ni948   2.388       .  S
Ni372      Ni947   2.388   1_455  S
C373        O939   1.281   1_455  A
C373        C409   1.474       .  S
C374        O940   1.280   1_455  A
C374        C544   1.475       .  S
C375        O941   1.281   1_455  A
C375        C532   1.476       .  S
C376        O942   1.281   1_455  A
C376        C424   1.482   1_455  S
C377        C517   1.479       .  S
C377        C378   1.409       .  A
C377        C382   1.401       .  A
C378        C460   1.477       .  S
C378        C379   1.401       .  A
C379        C956   1.404       .  A
C379        H384   1.085       .  S
C380        C469   1.482       .  S
C380        C955   1.404   1_455  A
C380        C381   1.417       .  A
C381        C505   1.485       .  S
C381        C958   1.404       .  A
C382        C957   1.404       .  A
C382        H383   1.084       .  S
C385        C962   1.412       .  A
C385        C390   1.417       .  A
C386        C961   1.412       .  A
C386        C387   1.399       .  A
C386        H391   1.075       .  S
C387        C964   1.407   1_455  A
C387        O392   1.372       .  S
C388        C963   1.407       .  A
C388        C389   1.401       .  A
C389        C390   1.399       .  A
C389        H393   1.084       .  S
C390        O394   1.373       .  S
O392        H396   0.992       .  S
O394        H395   0.992       .  S
C397        C398   1.404       .  A
C397        C978   1.411       .  A
C398        C399   1.396       .  A
C398        H403   1.084       .  S
C399        C400   1.405       .  A
C399        O404   1.372       .  S
C400        C977   1.398       .  A
C401        C976   1.398   1_455  A
C401        C402   1.398       .  A
C401        H405   1.081       .  S
C402        C973   1.411   1_455  A
C402        O406   1.371       .  S
O404        H408   0.992       .  S
O406        H407   0.993       .  S
C409        C986   1.404   1_455  A
C409        C414   1.411       .  A
C410        C985   1.404       .  A
C410        C411   1.399       .  A
C410        H415   1.084       .  S
C411        C412   1.407       .  A
C411        O416   1.373       .  S
C412        C989   1.401       .  A
C413        C988   1.401   1_455  A
C413        C414   1.395       .  A
C413        H417   1.084       .  S
C414        O418   1.372       .  S
O416        H420   0.992   1_556  S
O418        H419   0.992       .  S
C421        C998   1.400       .  A
C421        C426   1.405       .  A
C422        C997   1.400   1_455  A
C422        C423   1.397       .  A
C422        H427   1.084       .  S
C423        C424   1.412   1_455  A
C423        O428   1.371       .  S
C424       C1001   1.408       .  A
C425       C1000   1.408       .  A
C425        C426   1.401       .  A
C425        H429   1.083       .  S
C426        O430   1.372       .  S
O428        H432   0.992       .  S
O430        H431   0.992       .  S
C433       C1010   1.403       .  A
C433        C438   1.405       .  A
C434       C1009   1.403   1_455  A
C434        C435   1.400       .  A
C434        H439   1.084       .  S
C435       C1012   1.412   1_455  A
C435        O440   1.372       .  S
C436       C1011   1.412       .  A
C436        C437   1.405       .  A
C437        C438   1.394       .  A
C437        H441   1.083       .  S
C438        O442   1.372       .  S
O440        H444   0.992       .  S
O442        H443   0.991       .  S
C445       C1022   1.407       .  A
C445        C450   1.414       .  A
C446       C1021   1.407   1_455  A
C446        C447   1.397       .  A
C446        H451   1.083       .  S
C447       C1024   1.404   1_455  A
C447        O452   1.372       .  S
C448       C1023   1.404       .  A
C448        C449   1.399       .  A
C449        C450   1.397       .  A
C449        H453   1.084       .  S
C450        O454   1.371       .  S
O452        H456   0.992       .  S
O454        H455   0.992       .  S
C457        C458   1.405       .  A
C457        C462   1.413       .  A
C458        C459   1.397       .  A
C458        H463   1.083       .  S
C459        C460   1.404       .  A
C459        O464   1.372       .  S
C460        C461   1.401       .  A
C461        C462   1.403       .  A
C461        H465   1.083       .  S
C462        O466   1.371       .  S
O464        H468   0.991       .  S
O466        H467   0.993       .  S
C469        C470   1.401       .  A
C469        C474   1.407       .  A
C470        C471   1.394       .  A
C470        H475   1.084       .  S
C471        C472   1.409       .  A
C471        O476   1.372       .  S
C472        C473   1.407       .  A
C473        C474   1.407       .  A
C473        H477   1.083       .  S
C474        O478   1.371       .  S
O476        H480   0.992       .  S
O478        H479   0.991       .  S
C481        C482   1.408       .  A
C481        C486   1.416       .  A
C482        C483   1.405       .  A
C482        H487   1.083       .  S
C483        C484   1.410       .  A
C483        O488   1.371       .  S
C485        H489   1.084       .  S
O488        H492   0.992       .  S
O490        H491   0.991       .  S
C493        C494   1.407       .  A
C493        C498   1.414       .  A
C494        C495   1.398       .  A
C494        H499   1.083       .  S
C495        C496   1.410       .  A
C496        C497   1.403       .  A
C497        C498   1.404       .  A
C497        H501   1.080       .  S
C498        O502   1.371       .  S
O500        H504   0.992       .  S
O502        H503   0.992       .  S
C505        C506   1.404       .  A
C505        C510   1.408       .  A
C506        C507   1.399       .  A
C506        H511   1.082       .  S
C507        C508   1.412       .  A
C507        O512   1.371       .  S
C508        C509   1.407       .  A
C509        C510   1.399       .  A
C509        H513   1.083       .  S
C510        O514   1.373       .  S
O512        H516   0.992       .  S
O514        H515   0.993       .  S
C517        C518   1.403       .  A
C517        C522   1.407       .  A
C518        C519   1.404       .  A
C518        H523   1.083       .  S
C519        C520   1.410       .  A
C519        O524   1.371       .  S
C520        C521   1.402       .  A
C521        C522   1.395       .  A
C521        H525   1.084       .  S
C522        O526   1.372       .  S
O524        H528   0.992       .  S
O526        H527   0.993       .  S
C529        C530   1.403       .  A
C529       C1110   1.404   1_455  A
C530        C531   1.399       .  A
C530        H535   1.084       .  S
C531        C532   1.410       .  A
C531        O536   1.372       .  S
C532       C1109   1.405   1_455  A
C533       C1108   1.405       .  A
C533        C534   1.398       .  A
C533        H537   1.084       .  S
C534       C1105   1.404       .  A
C534        O538   1.371       .  S
O536        H540   0.992       .  S
O538        H539   0.991       .  S
C541        C865   1.530       .  S
C541       C1118   1.411   1_455  A
C541        C546   1.417       .  A
C542       C1117   1.411       .  A
C542        C543   1.398       .  A
C542        H547   1.076       .  S
C543       C1120   1.407       .  A
C543        O548   1.372       .  S
C544       C1119   1.407   1_455  A
C544        C545   1.400       .  A
C545        C546   1.396       .  A
C545        H549   1.084       .  S
C546        O550   1.373       .  S
O548        H552   0.992       .  S
O550        H551   0.992       .  S
C553        C554   1.403       .  A
C553        C558   1.411       .  A
C554        C555   1.403       .  A
C554        H559   1.083       .  S
C555        C556   1.414       .  A
C555        O560   1.371       .  S
C556        C557   1.408       .  A
C557        C558   1.401       .  A
C557        H561   1.083       .  S
O560        H564   0.992       .  S
O562        H563   0.993       .  S
C565        C566   1.398       .  A
C565        C570   1.407       .  A
C566        C567   1.401       .  A
C566        H571   1.084       .  S
C567        C568   1.417       .  A
C567        O572   1.371       .  S
C568        C569   1.405       .  A
C569        C570   1.402       .  A
O572        H576   0.992       .  S
O574        H575   0.991       .  S
C577        C578   1.544   1_455  S
C577        C583   1.535       .  S
C578        H585   1.079       .  S
C578        C867   1.369       .  D
C579        C580   1.544   1_565  S
C579        C866   1.369       .  D
C579        C856   1.493   1_565  S
C580        H586   1.110       .  S
C581        H587   1.085       .  S
C581        C870   1.367       .  D
C582        C869   1.367       .  D
C582        C841   1.490   1_565  S
C583        H588   1.087       .  S
C584        C817   1.475       .  S
O589       Ni885   1.920       .  S
O589        C887   1.281       .  A
O590       Ni597   1.919       .  S
O590        C600   1.282       .  A
O591       Ni597   1.912       .  S
O591        C601   1.281       .  A
O592       Ni885   1.917       .  S
O592        C890   1.282       .  A
O593       Ni598   1.926       .  S
O593        C602   1.283       .  A
O594       Ni598   1.920       .  S
O594        C601   1.281       .  A
O595       Ni598   1.911       .  S
O595        C600   1.281       .  A
O596       Ni598   1.919       .  S
O596        C599   1.280       .  A
Ni597       O877   1.920       .  S
Ni597       O880   1.917       .  S
Ni597      Ni598   2.387       .  S
C599        O877   1.281       .  A
C599        C853   1.470       .  S
C600        C796   1.484       .  S
C601        C808   1.474       .  S
C602        O880   1.282       .  A
C602        C844   1.493       .  S
O603       Ni899   1.914       .  S
O603        C901   1.281       .  A
O604       Ni611   1.913       .  S
O604        C614   1.281       .  A
O605       Ni611   1.913       .  S
O605        C615   1.281       .  A
O606       Ni899   1.917       .  S
O606        C904   1.281       .  A
O607       Ni612   1.931       .  S
O607        C616   1.285       .  A
O608       Ni612   1.926       .  S
O608        C615   1.282       .  A
O609       Ni612   1.922       .  S
O609        C614   1.282       .  A
O610       Ni612   1.928       .  S
O610        C613   1.283       .  A
Ni611       O891   1.914       .  S
Ni611       O894   1.917       .  S
Ni611      Ni612   2.384       .  S
C613        O891   1.281       .  A
C613        C781   1.492       .  S
C614        C745   1.482       .  S
C615        C760   1.479       .  S
C616        O894   1.281       .  A
C616        C769   1.495       .  S
C617        C700   1.476       .  S
C617        C618   1.409   1_556  A
C617        C910   1.401   1_545  A
C618        C736   1.474       .  S
C618        C907   1.397   1_545  A
C619        C906   1.397       .  A
C619        C620   1.401       .  A
C619        H624   1.085       .  S
C620        C721   1.476       .  S
C620        C621   1.412   1_554  A
C621        C709   1.477       .  S
C621        C622   1.400       .  A
C622        C905   1.401       .  A
C622        H623   1.085       .  S
O625       Ni633   1.913       .  S
O626       Ni633   1.913       .  S
O627       Ni633   1.914       .  S
O628       Ni633   1.911       .  S
O629       Ni634   1.911       .  S
O629        C638   1.280       .  A
O630       Ni634   1.909       .  S
O630        C637   1.281       .  A
O631       Ni634   1.912       .  S
O631        C636   1.281       .  A
O632       Ni634   1.914       .  S
O632        C635   1.281       .  A
C635        C676   1.477       .  S
C636        C733   1.481       .  S
C637        C724   1.477       .  S
C638        C685   1.474       .  S
C639        C645   1.533       .  S
C639        C643   1.540   1_455  S
C639        C673   1.533       .  S
C640        H647   1.079       .  S
C640        C929   1.368       .  D
C641        C928   1.368       .  D
C641        C784   1.491   1_565  S
C642        C646   1.533       .  S
C642        C644   1.543   1_445  S
C642        H648   1.110       .  S
C643        H649   1.086       .  S
C643        C932   1.369       .  D
C644        C931   1.369       .  D
C644        C772   1.491   1_565  S
C645        H650   1.087       .  S
C645        C934   1.359       .  D
C646        C933   1.359   1_545  D
C646        C688   1.469   1_455  S
O651       Ni659   1.911       .  S
O652       Ni659   1.910       .  S
O653       Ni659   1.911       .  S
O654       Ni659   1.914       .  S
O655       Ni660   1.916       .  S
O655        C664   1.282       .  A
O656       Ni660   1.917       .  S
O656        C663   1.281       .  A
O657       Ni660   1.913       .  S
O657        C662   1.281       .  A
O658       Ni660   1.910       .  S
O658        C661   1.280       .  A
C661        C697   1.474       .  S
C662        C832   1.475       .  S
C663        C820   1.476       .  S
C664        C712   1.482       .  S
C665        C805   1.479       .  S
C665        C666   1.409       .  A
C665        C670   1.401   1_655  A
C666        C748   1.477       .  S
C666        C667   1.401       .  A
C667        H672   1.085       .  S
C668        C757   1.482       .  S
C668        C669   1.417       .  A
C669        C793   1.485       .  S
C670        H671   1.084       .  S
C673        C678   1.417   1_455  A
C674        C675   1.399       .  A
C674        H679   1.075       .  S
C675        O680   1.372       .  S
C676        C677   1.401       .  A
C677        C678   1.399       .  A
C677        H681   1.084       .  S
C678        O682   1.373       .  S
O680        H684   0.992       .  S
O682        H683   0.992       .  S
C685        C686   1.404       .  A
C686        C687   1.396       .  A
C686        H691   1.084       .  S
C687        C688   1.405       .  A
C687        O692   1.372       .  S
C689        C690   1.398       .  A
C689        H693   1.081       .  S
C690        O694   1.371       .  S
O692        H696   0.992       .  S
O694        H695   0.993       .  S
C697        C702   1.411       .  A
C698        C699   1.399       .  A
C698        H703   1.084       .  S
C699        C700   1.407       .  A
C699        O704   1.373       .  S
C701        C702   1.395       .  A
C701        H705   1.084       .  S
C702        O706   1.372       .  S
O704        H708   0.992   1_556  S
O706        H707   0.992       .  S
C709        C714   1.405       .  A
C710        C711   1.397       .  A
C710        H715   1.084       .  S
C711        C712   1.412       .  A
C711        O716   1.371       .  S
C713        C714   1.401       .  A
C713        H717   1.083       .  S
C714        O718   1.372       .  S
O716        H720   0.992       .  S
O718        H719   0.992       .  S
C721        C726   1.405       .  A
C722        C723   1.400       .  A
C722        H727   1.084       .  S
C723        O728   1.372       .  S
C724        C725   1.405       .  A
C725        C726   1.394       .  A
C725        H729   1.083       .  S
C726        O730   1.372       .  S
O728        H732   0.992       .  S
O730        H731   0.991       .  S
C733        C738   1.414       .  A
C734        C735   1.397       .  A
C734        H739   1.083       .  S
C735        O740   1.372       .  S
C736        C737   1.399       .  A
C737        C738   1.397       .  A
C737        H741   1.084       .  S
C738        O742   1.371       .  S
O740        H744   0.992       .  S
O742        H743   0.992       .  S
C745        C746   1.405       .  A
C745        C750   1.413       .  A
C746        C747   1.397       .  A
C746        H751   1.083       .  S
C747        C748   1.404       .  A
C747        O752   1.372       .  S
C748        C749   1.401       .  A
C749        C750   1.403       .  A
C749        H753   1.083       .  S
C750        O754   1.371       .  S
O752        H756   0.991       .  S
O754        H755   0.993       .  S
C757        C758   1.401       .  A
C757        C762   1.407       .  A
C758        C759   1.394       .  A
C758        H763   1.084       .  S
C759        C760   1.409       .  A
C759        O764   1.372       .  S
C760        C761   1.407       .  A
C761        C762   1.407       .  A
C761        H765   1.083       .  S
C762        O766   1.371       .  S
O764        H768   0.992       .  S
O766        H767   0.991       .  S
C769        C770   1.408       .  A
C769        C774   1.416   1_545  A
C770        C771   1.405       .  A
C770        H775   1.083       .  S
C771        C772   1.410       .  A
C771        O776   1.371       .  S
C772       C1061   1.403   1_545  A
C773       C1060   1.403       .  A
C773       C1062   1.402       .  A
C773        H777   1.084       .  S
C774       C1061   1.402       .  A
C774       O1066   1.371       .  S
O776        H780   0.992       .  S
O778       C1062   1.371       .  S
O778        H779   0.991       .  S
C781        C782   1.407   1_545  A
C781        C786   1.414       .  A
C782        C783   1.398       .  A
C782        H787   1.083       .  S
C783        C784   1.410   1_565  A
C783       O1076   1.372       .  S
C784        C785   1.403       .  A
C785        C786   1.404       .  A
C785        H789   1.080       .  S
C786        O790   1.371       .  S
O788       C1071   1.372       .  S
O788        H792   0.992       .  S
O790        H791   0.992       .  S
C793        C794   1.404       .  A
C793        C798   1.408       .  A
C794        C795   1.399       .  A
C794        H799   1.082       .  S
C795        C796   1.412       .  A
C795        O800   1.371       .  S
C796        C797   1.407       .  A
C797        C798   1.399       .  A
C797        H801   1.083       .  S
C798        O802   1.373       .  S
O800        H804   0.992       .  S
O802        H803   0.993       .  S
C805        C806   1.403       .  A
C805        C810   1.407       .  A
C806        C807   1.404       .  A
C806        H811   1.083       .  S
C807        C808   1.410       .  A
C807        O812   1.371       .  S
C808        C809   1.402       .  A
C809        C810   1.395       .  A
C809        H813   1.084       .  S
C810        O814   1.372       .  S
O812        H816   0.992       .  S
O814        H815   0.993       .  S
C817        C818   1.403       .  A
C818        C819   1.399       .  A
C818        H823   1.084       .  S
C819        C820   1.410       .  A
C819        O824   1.372       .  S
C821        C822   1.398       .  A
C821        H825   1.084       .  S
C822        O826   1.371       .  S
O824        H828   0.992       .  S
O826        H827   0.991       .  S
C829        C834   1.417       .  A
C830        C831   1.398       .  A
C830        H835   1.076       .  S
C831        O836   1.372       .  S
C832        C833   1.400       .  A
C833        C834   1.396       .  A
C833        H837   1.084       .  S
C834        O838   1.373       .  S
O836        H840   0.992       .  S
O838        H839   0.992       .  S
C841        C842   1.403       .  A
C841        C846   1.411   1_545  A
C842        C843   1.403       .  A
C842        H847   1.083       .  S
C843        C844   1.414       .  A
C843        O848   1.371       .  S
C844        C845   1.408   1_545  A
C845        C846   1.401       .  A
C845        H849   1.083       .  S
C846       O1138   1.372       .  S
O848        H852   0.992       .  S
O850       C1134   1.372       .  S
O850        H851   0.993       .  S
C853        C854   1.398       .  A
C853        C858   1.407       .  A
C854        C855   1.401   1_545  A
C854        H859   1.084   1_545  S
C855        C856   1.417   1_565  A
C855        O860   1.371       .  S
C856        C857   1.405       .  A
C857        C858   1.402       .  A
C857       H1149   1.083       .  S
C858       O1150   1.372       .  S
O860        H864   0.992       .  S
H861       C1145   1.083       .  S
O862       C1146   1.372       .  S
O862        H863   0.991       .  S
C865        C866   1.544   1_455  S
C865        C871   1.535       .  S
C866        H873   1.079       .  S
C867        C868   1.544       .  S
C867       C1144   1.493       .  S
C868        H874   1.110       .  S
C869        H875   1.085       .  S
C870       C1129   1.490       .  S
C871        H876   1.087       .  S
C872       C1105   1.475       .  S
O878       Ni885   1.919       .  S
O878        C888   1.282       .  A
O879       Ni885   1.912       .  S
O879        C889   1.281       .  A
O881       Ni886   1.926       .  S
O881        C890   1.283       .  A
O882       Ni886   1.920       .  S
O882        C889   1.281       .  A
O883       Ni886   1.911       .  S
O883        C888   1.281       .  A
O884       Ni886   1.919       .  S
O884        C887   1.280       .  A
Ni885      Ni886   2.387       .  S
C887       C1141   1.470       .  S
C888       C1084   1.484       .  S
C889       C1096   1.474       .  S
C890       C1132   1.493       .  S
O892       Ni899   1.913       .  S
O892        C902   1.281       .  A
O893       Ni899   1.913       .  S
O893        C903   1.281       .  A
O895       Ni900   1.931       .  S
O895        C904   1.285       .  A
O896       Ni900   1.926       .  S
O896        C903   1.282       .  A
O897       Ni900   1.922       .  S
O897        C902   1.282       .  A
O898       Ni900   1.928       .  S
O898        C901   1.283       .  A
Ni899      Ni900   2.384       .  S
C901       C1069   1.492       .  S
C902       C1033   1.482       .  S
C903       C1048   1.479       .  S
C904       C1057   1.495       .  S
C905        C988   1.476       .  S
C905        C906   1.409   1_556  A
C906       C1024   1.474       .  S
C907        C908   1.401       .  A
C907        H912   1.085       .  S
C908       C1009   1.476       .  S
C908        C909   1.412   1_554  A
C909        C997   1.477       .  S
C909        C910   1.400       .  A
C910        H911   1.085       .  S
O913       Ni921   1.913       .  S
O914       Ni921   1.913       .  S
O915       Ni921   1.914       .  S
O916       Ni921   1.911       .  S
O917       Ni922   1.911       .  S
O917        C926   1.280       .  A
O918       Ni922   1.909       .  S
O918        C925   1.281       .  A
O919       Ni922   1.912       .  S
O919        C924   1.281       .  A
O920       Ni922   1.914       .  S
O920        C923   1.281       .  A
C923        C964   1.477       .  S
C924       C1021   1.481       .  S
C925       C1012   1.477       .  S
C926        C973   1.474       .  S
C927        C933   1.533       .  S
C927        C931   1.540   1_455  S
C927        C961   1.533       .  S
C928        H935   1.079       .  S
C929       C1072   1.491       .  S
C930        C934   1.533       .  S
C930        C932   1.543   1_455  S
C930        H936   1.110       .  S
C931        H937   1.086       .  S
C932       C1060   1.491       .  S
C933        H938   1.087       .  S
C934        C976   1.469   1_455  S
O939       Ni947   1.911       .  S
O940       Ni947   1.910       .  S
O941       Ni947   1.911       .  S
O942       Ni947   1.914       .  S
O943       Ni948   1.916       .  S
O943        C952   1.282       .  A
O944       Ni948   1.917       .  S
O944        C951   1.281       .  A
O945       Ni948   1.913       .  S
O945        C950   1.281       .  A
O946       Ni948   1.910       .  S
O946        C949   1.280       .  A
C949        C985   1.474       .  S
C950       C1120   1.475       .  S
C951       C1108   1.476       .  S
C952       C1000   1.482       .  S
C953       C1093   1.479       .  S
C953        C954   1.409       .  A
C953        C958   1.401   1_655  A
C954       C1036   1.477       .  S
C954        C955   1.401       .  A
C955        H960   1.085       .  S
C956       C1045   1.482       .  S
C956        C957   1.417       .  A
C957       C1081   1.485       .  S
C958        H959   1.084       .  S
C961        C966   1.417   1_455  A
C962        C963   1.399       .  A
C962        H967   1.075       .  S
C963        O968   1.372       .  S
C964        C965   1.401       .  A
C965        C966   1.399       .  A
C965        H969   1.084       .  S
C966        O970   1.373       .  S
O968        H972   0.992       .  S
O970        H971   0.992       .  S
C973        C974   1.404       .  A
C974        C975   1.396       .  A
C974        H979   1.084       .  S
C975        C976   1.405       .  A
C975        O980   1.372       .  S
C977        C978   1.398       .  A
C977        H981   1.081       .  S
C978        O982   1.371       .  S
O980        H984   0.992       .  S
O982        H983   0.993       .  S
C985        C990   1.411       .  A
C986        C987   1.399       .  A
C986        H991   1.084       .  S
C987        C988   1.407       .  A
C987        O992   1.373       .  S
C989        C990   1.395       .  A
C989        H993   1.084       .  S
C990        O994   1.372       .  S
O992        H996   0.992   1_556  S
O994        H995   0.992       .  S
C997       C1002   1.405       .  A
C998        C999   1.397       .  A
C998       H1003   1.084       .  S
C999       C1000   1.412       .  A
C999       O1004   1.371       .  S
C1001      C1002   1.401       .  A
C1001      H1005   1.083       .  S
C1002      O1006   1.372       .  S
O1004      H1008   0.992       .  S
O1006      H1007   0.992       .  S
C1009      C1014   1.405       .  A
C1010      C1011   1.400       .  A
C1010      H1015   1.084       .  S
C1011      O1016   1.372       .  S
C1012      C1013   1.405       .  A
C1013      C1014   1.394       .  A
C1013      H1017   1.083       .  S
C1014      O1018   1.372       .  S
O1016      H1020   0.992       .  S
O1018      H1019   0.991       .  S
C1021      C1026   1.414       .  A
C1022      C1023   1.397       .  A
C1022      H1027   1.083       .  S
C1023      O1028   1.372       .  S
C1024      C1025   1.399       .  A
C1025      C1026   1.397       .  A
C1025      H1029   1.084       .  S
C1026      O1030   1.371       .  S
O1028      H1032   0.992       .  S
O1030      H1031   0.992       .  S
C1033      C1034   1.405       .  A
C1033      C1038   1.413       .  A
C1034      C1035   1.397       .  A
C1034      H1039   1.083       .  S
C1035      C1036   1.404       .  A
C1035      O1040   1.372       .  S
C1036      C1037   1.401       .  A
C1037      C1038   1.403       .  A
C1037      H1041   1.083       .  S
C1038      O1042   1.371       .  S
O1040      H1044   0.991       .  S
O1042      H1043   0.993       .  S
C1045      C1046   1.401       .  A
C1045      C1050   1.407       .  A
C1046      C1047   1.394       .  A
C1046      H1051   1.084       .  S
C1047      C1048   1.409       .  A
C1047      O1052   1.372       .  S
C1048      C1049   1.407       .  A
C1049      C1050   1.407       .  A
C1049      H1053   1.083       .  S
C1050      O1054   1.371       .  S
O1052      H1056   0.992       .  S
O1054      H1055   0.991       .  S
C1057      C1058   1.408       .  A
C1057      C1062   1.416       .  A
C1058      C1059   1.405       .  A
C1058      H1063   1.083       .  S
C1059      C1060   1.410       .  A
C1059      O1064   1.371       .  S
C1061      H1065   1.084       .  S
O1064      H1068   0.992       .  S
O1066      H1067   0.991       .  S
C1069      C1070   1.407       .  A
C1069      C1074   1.414       .  A
C1070      C1071   1.398       .  A
C1070      H1075   1.083       .  S
C1071      C1072   1.410       .  A
C1072      C1073   1.403       .  A
C1073      C1074   1.404       .  A
C1073      H1077   1.080       .  S
C1074      O1078   1.371       .  S
O1076      H1080   0.992       .  S
O1078      H1079   0.992       .  S
C1081      C1082   1.404       .  A
C1081      C1086   1.408       .  A
C1082      C1083   1.399       .  A
C1082      H1087   1.082       .  S
C1083      C1084   1.412       .  A
C1083      O1088   1.371       .  S
C1084      C1085   1.407       .  A
C1085      C1086   1.399       .  A
C1085      H1089   1.083       .  S
C1086      O1090   1.373       .  S
O1088      H1092   0.992       .  S
O1090      H1091   0.993       .  S
C1093      C1094   1.403       .  A
C1093      C1098   1.407       .  A
C1094      C1095   1.404       .  A
C1094      H1099   1.083       .  S
C1095      C1096   1.410       .  A
C1095      O1100   1.371       .  S
C1096      C1097   1.402       .  A
C1097      C1098   1.395       .  A
C1097      H1101   1.084       .  S
C1098      O1102   1.372       .  S
O1100      H1104   0.992       .  S
O1102      H1103   0.993       .  S
C1105      C1106   1.403       .  A
C1106      C1107   1.399       .  A
C1106      H1111   1.084       .  S
C1107      C1108   1.410       .  A
C1107      O1112   1.372       .  S
C1109      C1110   1.398       .  A
C1109      H1113   1.084       .  S
C1110      O1114   1.371       .  S
O1112      H1116   0.992       .  S
O1114      H1115   0.991       .  S
C1117      C1122   1.417       .  A
C1118      C1119   1.398       .  A
C1118      H1123   1.076       .  S
C1119      O1124   1.372       .  S
C1120      C1121   1.400       .  A
C1121      C1122   1.396       .  A
C1121      H1125   1.084       .  S
C1122      O1126   1.373       .  S
O1124      H1128   0.992       .  S
O1126      H1127   0.992       .  S
C1129      C1130   1.403       .  A
C1129      C1134   1.411       .  A
C1130      C1131   1.403       .  A
C1130      H1135   1.083       .  S
C1131      C1132   1.414       .  A
C1131      O1136   1.371       .  S
C1132      C1133   1.408       .  A
C1133      C1134   1.401       .  A
C1133      H1137   1.083       .  S
O1136      H1140   0.992       .  S
O1138      H1139   0.993       .  S
C1141      C1142   1.398       .  A
C1141      C1146   1.407       .  A
C1142      C1143   1.401       .  A
C1142      H1147   1.084       .  S
C1143      C1144   1.417       .  A
C1143      O1148   1.371       .  S
C1144      C1145   1.405       .  A
C1145      C1146   1.402       .  A
O1148      H1152   0.992       .  S
O1150      H1151   0.991       .  S
