geometry optimzed in LAMMPS
_audit_creation_date              2020-11-30 
_audit_creation_method            'lammps2cif' 
_symmetry_space_group_name_H-M    'P1' 
_symmetry_Int_Tables_number       1 
_symmetry_cell_setting            triclinic 
loop_ 
_symmetry_equiv_pos_as_xyz 
  x,y,z 
_cell_length_a                    36.63951297 
_cell_length_b                    47.91239772641074 
_cell_length_c                    43.52177083651254 
_cell_angle_alpha                 89.99905362869247 
_cell_angle_beta                  90.00443832017366 
_cell_angle_gamma                 90.00190240929656 
loop_ 
_atom_site_label 
_atom_site_type_symbol 
_atom_site_fract_x 
_atom_site_fract_y 
_atom_site_fract_z 
_atom_site_charge 
O1          O  0.44818014  0.00007341  0.47493918    -0.72300
O2          O  0.05189305  0.49992810  0.47509137    -0.72500
O3          O  0.49992983  0.46036582  0.47501008    -0.72400
O4          O  0.00013765  0.03963454  0.47501396    -0.72400
O5          O  0.49983737  0.03963178  0.02500225    -0.72300
O6          O  0.00005449  0.46036362  0.02499879    -0.72300
O7          O  0.05179968  0.00007712  0.02507280    -0.72300
O8          O  0.44808644  0.49991923  0.02492055    -0.72500
V9          V  0.50003461  0.50000039  0.47598633     1.35200
V10         V  0.99994508  0.49999795  0.02402588     1.35200
C11         C  0.43062238  0.99999544  0.99990519     0.77000
C12         C  0.06935723  0.50000379  0.00010664     0.77000
C13         C  0.49999256  0.44697701  0.50000401     0.76900
C14         C  0.99998673  0.05302045  0.50000880     0.76900
O15         O  0.44798341  0.99992215  0.22525283    -0.72300
O16         O  0.05169550  0.50007703  0.22478646    -0.72500
O17         O  0.49994957  0.46036541  0.22501495    -0.72400
O18         O  0.99973606  0.03963281  0.22501737    -0.72400
O19         O  0.50024459  0.03963134  0.27500459    -0.72300
O20         O  0.00003661  0.46036377  0.27500377    -0.72300
O21         O  0.05200064  0.99992518  0.27476723    -0.72300
O22         O  0.44828790  0.50007090  0.27523364    -0.72500
V23         V  0.49984438  0.49999929  0.22599065     1.35200
V24         V  0.00013928  0.49999778  0.27402966     1.35200
C25         C  0.43062474  0.49999603  0.25031795     0.77000
C26         C  0.06935893  0.50000191  0.24970190     0.77000
C27         C  0.49999330  0.44697720  0.25000906     0.76900
C28         C  0.49998935  0.05301907  0.25001121     0.76900
O29         O  0.19818700  0.49998934  0.02507455    -0.72300
O30         O  0.30189996  0.99999461  0.02491617    -0.72500
O31         O  0.25004418  0.03962732  0.02500269    -0.72400
O32         O  0.25004836  0.46035619  0.02499425    -0.72400
O33         O  0.24991682  0.46036108  0.47500573    -0.72300
O34         O  0.24994555  0.03963183  0.47501412    -0.72300
O35         O  0.30179207  0.49998735  0.47493453    -0.72300
O36         O  0.19807869  0.00000644  0.47509291    -0.72500
V37         V  0.25004264  0.99999182  0.02402412     1.35200
V38         V  0.24993595  0.99999649  0.47598464     1.35200
C39         C  0.18062204  0.99999969  0.00010924     0.77000
C40         C  0.31935694  0.99999063  0.99990002     0.77000
C41         C  0.24999488  0.05301778  0.00000956     0.76900
C42         C  0.24997939  0.44697037  0.99999860     0.76900
O43         O  0.19798845  0.50000283  0.27476595    -0.72300
O44         O  0.30170094  0.99998594  0.27522986    -0.72500
O45         O  0.24986296  0.03962678  0.27500237    -0.72400
O46         O  0.24983649  0.46036158  0.27500080    -0.72400
O47         O  0.25013354  0.46036314  0.22501224    -0.72300
O48         O  0.25013003  0.03962837  0.22501368    -0.72300
O49         O  0.30199483  0.49999854  0.22524879    -0.72300
O50         O  0.19828182  0.99999335  0.22478483    -0.72500
V51         V  0.24984985  0.49999425  0.27402694     1.35200
V52         V  0.25013286  0.49999575  0.22598761     1.35200
C53         C  0.18062434  0.49999938  0.24970098     0.77000
C54         C  0.31935880  0.49999211  0.25031398     0.77000
C55         C  0.24999666  0.05301400  0.25000831     0.76900
C56         C  0.24998164  0.44697593  0.25000626     0.76900
O57         O  0.47036082  0.32390481  0.00014340    -0.72300
O58         O  0.47031041  0.40316401  0.49970911    -0.72500
O59         O  0.47048942  0.36330388  0.45632349    -0.72400
O60         O  0.47023291  0.36376105  0.04358360    -0.72400
O61         O  0.02948699  0.36330497  0.04369125    -0.72300
O62         O  0.02974335  0.36375493  0.45643114    -0.72300
O63         O  0.02967076  0.40316341  0.00029992    -0.72300
O64         O  0.02961227  0.32390486  0.49987849    -0.72500
V65         V  0.47150251  0.36353370  0.99994631     1.35200
V66         V  0.02847413  0.36353285  0.00006863     1.35200
C67         C  0.49998623  0.31035484  0.00001307     0.77000
C68         C  0.49999133  0.41655425  0.00000371     0.77000
C69         C  0.50015158  0.36352722  0.44145885     0.76900
C70         C  0.49982478  0.36353076  0.05855563     0.76900
O71         O  0.02961322  0.32390989  0.25037688    -0.72300
O72         O  0.02966901  0.40316494  0.24952785    -0.72500
O73         O  0.02973153  0.36393422  0.29359108    -0.72400
O74         O  0.02949767  0.36313214  0.20633314    -0.72400
O75         O  0.47025035  0.36393955  0.20642117    -0.72300
O76         O  0.47048441  0.36312957  0.29367830    -0.72300
O77         O  0.47031551  0.40316447  0.25048743    -0.72300
O78         O  0.47036892  0.32390887  0.24962994    -0.72500
V79         V  0.02847573  0.36353612  0.24995895     1.35200
V80         V  0.47150692  0.36353591  0.25005270     1.35200
C81         C  0.49999123  0.31035801  0.25000133     0.77000
C82         C  0.49999266  0.41655524  0.25000821     0.77000
C83         C  0.50014055  0.36352976  0.30855377     0.76900
C84         C  0.49984092  0.36353356  0.19145834     0.76900
O85         O  0.22034035  0.32389093  0.00023698    -0.72300
O86         O  0.22029168  0.40315612  0.49998682    -0.72500
O87         O  0.22016517  0.36345782  0.45644116    -0.72400
O88         O  0.22051877  0.36359666  0.04370023    -0.72400
O89         O  0.27977517  0.36346786  0.04356121    -0.72300
O90         O  0.27942151  0.36358686  0.45630230    -0.72300
O91         O  0.27965586  0.40315451  0.00000556    -0.72300
O92         O  0.27959375  0.32389041  0.49977431    -0.72500
V93         V  0.22148376  0.36352396  0.00008174     1.35200
V94         V  0.27845661  0.36352321  0.99992055     1.35200
C95         C  0.24996631  0.31034295  0.00000478     0.77000
C96         C  0.24997513  0.41654631  0.99999601     0.77000
C97         C  0.24974538  0.36353150  0.44145349     0.76900
C98         C  0.25019503  0.36354710  0.05854895     0.76900
O99         O  0.27959745  0.32391049  0.24975951    -0.72300
O100        O  0.27965574  0.40316660  0.25038409    -0.72500
O101        O  0.27944294  0.36324721  0.29369255    -0.72400
O102        O  0.27975628  0.36383816  0.20643475    -0.72400
O103        O  0.22050513  0.36325470  0.20631070    -0.72300
O104        O  0.22019182  0.36382752  0.29356755    -0.72300
O105        O  0.22029762  0.40316713  0.24962577    -0.72300
O106        O  0.22034964  0.32390923  0.25023823    -0.72500
V107        V  0.27845963  0.36353915  0.25006652     1.35200
V108        V  0.22148941  0.36353852  0.24993646     1.35200
C109        C  0.24997354  0.31035786  0.25000048     0.77000
C110        C  0.24997775  0.41655628  0.25000557     0.77000
C111        C  0.24977349  0.36354535  0.30854901     0.76900
C112        C  0.25017395  0.36355977  0.19145374     0.76900
O113        O  0.47036418  0.17609096  0.49990930    -0.72300
O114        O  0.47030525  0.09683197  0.00001614    -0.72500
O115        O  0.47028529  0.13648838  0.04360759    -0.72400
O116        O  0.47043677  0.13643554  0.45634952    -0.72400
O117        O  0.02969288  0.13648527  0.45641383    -0.72300
O118        O  0.02954106  0.13643327  0.04367159    -0.72300
O119        O  0.02966984  0.09683203  0.50000582    -0.72300
O120        O  0.02961547  0.17609156  0.00011230    -0.72500
V121        V  0.47150275  0.13646219  0.99997431     1.35200
V122        V  0.02847496  0.13646174  0.00004712     1.35200
C123        C  0.99998994  0.18964168  0.00001223     0.77000
C124        C  0.99998700  0.08344204  0.00001044     0.77000
C125        C  0.99989268  0.13645398  0.05855818     0.76900
C126        C  0.00008532  0.13645184  0.44146312     0.76900
O127        O  0.02961797  0.17608746  0.25014939    -0.72300
O128        O  0.02967128  0.09682964  0.24983046    -0.72500
O129        O  0.02955317  0.13660766  0.20635952    -0.72400
O130        O  0.02968363  0.13630482  0.29361716    -0.72400
O131        O  0.47042904  0.13661016  0.29366157    -0.72300
O132        O  0.47029867  0.13630842  0.20640435    -0.72300
O133        O  0.47030827  0.09682971  0.25019223    -0.72300
O134        O  0.47036812  0.17608753  0.24986848    -0.72500
V135        V  0.02847710  0.13645854  0.24998815     1.35200
V136        V  0.47150548  0.13645938  0.25003296     1.35200
C137        C  0.49999348  0.18963866  0.25000654     0.77000
C138        C  0.49998943  0.08343995  0.25001153     0.77000
C139        C  0.49990781  0.13645147  0.19146317     0.76900
C140        C  0.50007431  0.13644923  0.30855817     0.76900
O141        O  0.22034621  0.17609354  0.50024837    -0.72300
O142        O  0.22030573  0.09682887  0.00000500    -0.72500
O143        O  0.22054531  0.13638936  0.04371425    -0.72400
O144        O  0.22015896  0.13652458  0.45645514    -0.72400
O145        O  0.27941528  0.13639553  0.45630411    -0.72300
O146        O  0.27980152  0.13653496  0.04356258    -0.72300
O147        O  0.27967007  0.09683658  0.50001715    -0.72300
O148        O  0.27959945  0.17610075  0.99976389    -0.72500
V149        V  0.22149387  0.13646067  0.00009608     1.35200
V150        V  0.27846664  0.13646815  0.99992182     1.35200
C151        C  0.24997071  0.18964489  0.00000385     0.75800
C152        C  0.24999030  0.08344173  0.00001146     0.77000
C153        C  0.25022608  0.13645110  0.05855674     0.76900
C154        C  0.24973479  0.13644980  0.44146143     0.76900
O155        O  0.27960598  0.17608262  0.24977993    -0.72300
O156        O  0.27967078  0.09682591  0.25039379    -0.72500
O157        O  0.27978457  0.13616363  0.20644919    -0.72400
O158        O  0.27943883  0.13673946  0.29370697    -0.72400
O159        O  0.22018773  0.13615620  0.29356949    -0.72300
O160        O  0.22053336  0.13673449  0.20631292    -0.72300
O161        O  0.22031285  0.09682019  0.24962493    -0.72300
O162        O  0.22035798  0.17607733  0.25024086    -0.72500
V163        V  0.27847166  0.13645388  0.25008125     1.35200
V164        V  0.22150146  0.13644834  0.24993816     1.35200
C165        C  0.24998058  0.18963193  0.25001145     0.77000
C166        C  0.24999350  0.08343364  0.25000903     0.77000
C167        C  0.25020664  0.13643913  0.19146200     0.76900
C168        C  0.24976488  0.13643878  0.30855715     0.76900
C169        C  0.28265147  0.13784533  0.39107129    -0.13800
C170        C  0.24966737  0.13642528  0.40746754     0.08300
C171        C  0.21667973  0.13498038  0.39106601    -0.13800
C172        C  0.21669065  0.13497028  0.35893912    -0.13800
C173        C  0.24968868  0.13641781  0.34255195     0.08300
C174        C  0.28266189  0.13784800  0.35896389    -0.13800
H175        H  0.30851513  0.13901326  0.40305318     0.12300
H176        H  0.19082256  0.13381254  0.40305539     0.12300
H177        H  0.19083888  0.13380010  0.34693859     0.12300
H178        H  0.30853181  0.13901337  0.34699553     0.12300
C179        C  0.28328711  0.13501928  0.10895080    -0.13800
C180        C  0.25029529  0.13642374  0.09255089     0.08300
C181        C  0.21730969  0.13780015  0.10894922    -0.13800
C182        C  0.21730234  0.13780252  0.14105666    -0.13800
C183        C  0.25028001  0.13641563  0.15746693     0.08300
C184        C  0.28327912  0.13500880  0.14107761    -0.13800
H185        H  0.30914600  0.13388525  0.09696003     0.12300
H186        H  0.19144231  0.13893386  0.09696890     0.12300
H187        H  0.19143063  0.13893350  0.15302658     0.12300
H188        H  0.30913471  0.13387227  0.15307661     0.12300
C189        C  0.03313207  0.13555884  0.39107125    -0.13800
C190        C  0.00011175  0.13642883  0.40746867     0.08300
C191        C  0.46709282  0.13727694  0.39106718    -0.13800
C192        C  0.46708852  0.13727928  0.35895432    -0.13800
C193        C  0.50010339  0.13642709  0.34255294     0.08300
C194        C  0.03312788  0.13555482  0.35895082    -0.13800
H195        H  0.05902108  0.13485749  0.40305944     0.12300
H196        H  0.44120125  0.13797639  0.40304766     0.12300
H197        H  0.44119496  0.13797806  0.34697439     0.12300
H198        H  0.05901472  0.13485301  0.34696310     0.12300
C199        C  0.03289346  0.13710710  0.10895355    -0.13800
C200        C  0.99986679  0.13643501  0.09255271     0.08300
C201        C  0.46683994  0.13574464  0.10895081    -0.13800
C202        C  0.46684547  0.13574064  0.14107116    -0.13800
C203        C  0.49987773  0.13643333  0.15746843     0.08300
C204        C  0.03289859  0.13710944  0.14106628    -0.13800
H205        H  0.05879068  0.13766171  0.09697289     0.12300
H206        H  0.44094470  0.13518848  0.09696370     0.12300
H207        H  0.44095256  0.13518404  0.15305935     0.12300
H208        H  0.05879897  0.13766340  0.15304561     0.12300
C209        C  0.21694277  0.26457966  0.25055039    -0.13800
C210        C  0.24997450  0.27947841  0.25000594     0.08300
C211        C  0.28300788  0.26458337  0.24946861    -0.13800
C212        C  0.28300973  0.23541014  0.24947231    -0.13800
C213        C  0.24997807  0.22051130  0.25001311     0.08300
C214        C  0.21694448  0.23540611  0.25055378    -0.13800
H215        H  0.19104066  0.27546356  0.25098253     0.12300
H216        H  0.30890913  0.27547014  0.24903473     0.12300
H217        H  0.30891212  0.22452646  0.24904065     0.12300
H218        H  0.19104376  0.22451918  0.25098818     0.12300
C219        C  0.28257888  0.26458332  0.99554192    -0.13800
C220        C  0.24996532  0.27947197  0.00000103     0.08300
C221        C  0.21735121  0.26458033  0.50445503    -0.13800
C222        C  0.21735262  0.23540451  0.50445409    -0.13800
C223        C  0.24996703  0.22051585  0.99999897     0.08300
C224        C  0.28257947  0.23540781  0.99554069    -0.13800
H225        H  0.30811598  0.27548256  0.99191795     0.12300
H226        H  0.19181382  0.27547725  0.50807878     0.12300
H227        H  0.19181475  0.22450457  0.50807755     0.12300
H228        H  0.30811769  0.22451094  0.99191616     0.12300
C229        C  0.21669576  0.36498404  0.39105794    -0.13800
C230        C  0.24968412  0.36355531  0.40745954     0.08300
C231        C  0.28267001  0.36215277  0.39106341    -0.13800
C232        C  0.28267952  0.36215118  0.35895508    -0.13800
C233        C  0.24970427  0.36356481  0.34254387     0.08300
C234        C  0.21670638  0.36499515  0.35893197    -0.13800
H235        H  0.19083745  0.36613822  0.40304654     0.12300
H236        H  0.30853402  0.36099860  0.40304569     0.12300
H237        H  0.30854991  0.36100022  0.34698538     0.12300
H238        H  0.19085264  0.36615234  0.34693250     0.12300
C239        C  0.21727708  0.36211144  0.10894037    -0.13800
C240        C  0.25025696  0.36358241  0.09254294     0.08300
C241        C  0.28324042  0.36508702  0.10894333    -0.13800
C242        C  0.28323217  0.36509748  0.14106948    -0.13800
C243        C  0.25024071  0.36359065  0.15745877     0.08300
C244        C  0.21726933  0.36210912  0.14104884    -0.13800
H245        H  0.19141694  0.36089847  0.09695887     0.12300
H246        H  0.30909372  0.36630014  0.09695323     0.12300
H247        H  0.30908143  0.36631318  0.15306786     0.12300
H248        H  0.19140430  0.36089894  0.15301957     0.12300
C249        C  0.46696284  0.26458342  0.24933718    -0.13800
C250        C  0.49999203  0.27948055  0.24999708     0.08300
C251        C  0.03302236  0.26458598  0.25065451    -0.13800
C252        C  0.03302391  0.23541330  0.25065206    -0.13800
C253        C  0.49999374  0.22051639  0.25000046     0.08300
C254        C  0.46696301  0.23541089  0.24934300    -0.13800
H255        H  0.44106275  0.27546825  0.24880983     0.12300
H256        H  0.05892186  0.27547289  0.25118053     0.12300
H257        H  0.05892257  0.22452895  0.25117930     0.12300
H258        H  0.44106465  0.22452462  0.24881660     0.12300
C259        C  0.03294826  0.26458718  0.50193655    -0.13800
C260        C  0.49998647  0.27947966  0.00001731     0.08300
C261        C  0.46702620  0.26458407  0.99810069    -0.13800
C262        C  0.46702746  0.23541115  0.99809581    -0.13800
C263        C  0.99998906  0.22051795  0.00001597     0.08300
C264        C  0.03294914  0.23541418  0.50194002    -0.13800
H265        H  0.05878539  0.27547698  0.50350448     0.12300
H266        H  0.44118746  0.27547190  0.99653325     0.12300
H267        H  0.44118973  0.22452223  0.99652806     0.12300
H268        H  0.05878812  0.22452732  0.50350758     0.12300
C269        C  0.46727631  0.36142936  0.39106237    -0.13800
C270        C  0.50019867  0.36352284  0.40746467     0.08300
C271        C  0.03312696  0.36561574  0.39106900    -0.13800
C272        C  0.03312239  0.36562015  0.35894487    -0.13800
C273        C  0.50019013  0.36352520  0.34254858     0.08300
C274        C  0.46727208  0.36142741  0.35895097    -0.13800
H275        H  0.44146358  0.35973091  0.40304288     0.12300
H276        H  0.05893343  0.36731413  0.40306206     0.12300
H277        H  0.05892704  0.36731928  0.34695239     0.12300
H278        H  0.44145724  0.35972977  0.34697146     0.12300
C279        C  0.46686491  0.36574630  0.10894518    -0.13800
C280        C  0.49977809  0.36352501  0.09254912     0.08300
C281        C  0.03268679  0.36130095  0.10894994    -0.13800
C282        C  0.03269208  0.36129906  0.14106127    -0.13800
C283        C  0.49978962  0.36352748  0.15746421     0.08300
C284        C  0.46687071  0.36575072  0.14106922    -0.13800
H285        H  0.44107022  0.36754984  0.09695199     0.12300
H286        H  0.05848577  0.35949666  0.09696855     0.12300
H287        H  0.05849496  0.35949550  0.15304065     0.12300
H288        H  0.44107936  0.36755496  0.15306280     0.12300
C289        C  0.39144968  0.49999450  0.25047015    -0.13800
C290        C  0.35853394  0.49999287  0.25046749    -0.15300
C291        C  0.10853384  0.50000291  0.24954854    -0.13800
C292        C  0.14144946  0.50000196  0.24954856    -0.15300
C293        C  0.35853195  0.99999119  0.99984946    -0.13800
C294        C  0.39144742  0.99999311  0.99985357    -0.15300
C295        C  0.14144731  0.00000353  0.00016047    -0.13800
C296        C  0.10853201  0.50000511  0.00015766    -0.15300
O297        O  0.44818013  0.00007338  0.97493920    -0.72300
O298        O  0.05189307  0.49992806  0.97509139    -0.72500
O299        O  0.49992984  0.46036580  0.97501009    -0.72400
O300        O  0.00013768  0.03963454  0.97501398    -0.72400
O301        O  0.49983735  0.03963179  0.52500224    -0.72300
O302        O  0.00005445  0.46036362  0.52499877    -0.72300
O303        O  0.05179972  0.00007710  0.52507278    -0.72300
O304        O  0.44808640  0.49991923  0.52492056    -0.72500
V305        V  0.50003465  0.50000038  0.97598633     1.35200
V306        V  0.99994505  0.49999795  0.52402587     1.35200
C307        C  0.43062239  0.99999545  0.49990517     0.77000
C308        C  0.06935720  0.50000382  0.50010662     0.77000
C309        C  0.49999253  0.44697699  0.00000403     0.76900
C310        C  0.99998669  0.05302045  0.00000882     0.76900
O311        O  0.44798336  0.99992218  0.72525284    -0.72300
O312        O  0.05169549  0.50007698  0.72478643    -0.72500
O313        O  0.49994965  0.46036539  0.72501497    -0.72400
O314        O  0.99973607  0.03963280  0.72501736    -0.72400
O315        O  0.50024453  0.03963134  0.77500459    -0.72300
O316        O  0.00003669  0.46036377  0.77500382    -0.72300
O317        O  0.05200065  0.99992514  0.77476724    -0.72300
O318        O  0.44828796  0.50007090  0.77523361    -0.72500
V319        V  0.49984443  0.49999926  0.72599064     1.35200
V320        V  0.00013931  0.49999779  0.77402967     1.35200
C321        C  0.43062479  0.49999600  0.75031793     0.77000
C322        C  0.06935893  0.50000192  0.74970186     0.77000
C323        C  0.49999338  0.44697719  0.75000909     0.76900
C324        C  0.49998927  0.05301907  0.75001121     0.76900
O325        O  0.19818698  0.49998936  0.52507452    -0.72300
O326        O  0.30189998  0.99999458  0.52491611    -0.72500
O327        O  0.25004426  0.03962732  0.52500268    -0.72400
O328        O  0.25004833  0.46035618  0.52499422    -0.72400
O329        O  0.24991672  0.46036107  0.97500575    -0.72300
O330        O  0.24994555  0.03963181  0.97501412    -0.72300
O331        O  0.30179207  0.49998728  0.97493454    -0.72300
O332        O  0.19807869  0.00000642  0.97509290    -0.72500
V333        V  0.25004266  0.99999183  0.52402410     1.35200
V334        V  0.24993596  0.99999648  0.97598465     1.35200
C335        C  0.18062206  0.99999973  0.50010925     0.77000
C336        C  0.31935694  0.99999061  0.49989996     0.77000
C337        C  0.24999494  0.05301779  0.50000957     0.76900
C338        C  0.24997948  0.44697036  0.49999858     0.76900
O339        O  0.19798847  0.50000289  0.77476593    -0.72300
O340        O  0.30170090  0.99998594  0.77522988    -0.72500
O341        O  0.24986293  0.03962678  0.77500237    -0.72400
O342        O  0.24983644  0.46036159  0.77500078    -0.72400
O343        O  0.25013358  0.46036314  0.72501222    -0.72300
O344        O  0.25013007  0.03962838  0.72501369    -0.72300
O345        O  0.30199484  0.49999858  0.72524878    -0.72300
O346        O  0.19828183  0.99999338  0.72478480    -0.72500
V347        V  0.24984987  0.49999426  0.77402692     1.35200
V348        V  0.25013287  0.49999575  0.72598759     1.35200
C349        C  0.18062435  0.49999939  0.74970096     0.77000
C350        C  0.31935882  0.49999209  0.75031397     0.77000
C351        C  0.24999669  0.05301400  0.75000831     0.76900
C352        C  0.24998160  0.44697594  0.75000625     0.76900
O353        O  0.47036074  0.32390485  0.50014338    -0.72300
O354        O  0.47031040  0.40316397  0.99970910    -0.72500
O355        O  0.47048951  0.36330383  0.95632351    -0.72400
O356        O  0.47023301  0.36376108  0.54358365    -0.72400
O357        O  0.02948697  0.36330501  0.54369125    -0.72300
O358        O  0.02974341  0.36375490  0.95643123    -0.72300
O359        O  0.02967071  0.40316343  0.50029987    -0.72300
O360        O  0.02961225  0.32390483  0.99987851    -0.72500
V361        V  0.47150249  0.36353374  0.49994632     1.35200
V362        V  0.02847413  0.36353288  0.50006858     1.35200
C363        C  0.49998605  0.31035488  0.50001303     0.77000
C364        C  0.49999135  0.41655427  0.50000368     0.77000
C365        C  0.50015165  0.36352719  0.94145891     0.76900
C366        C  0.49982495  0.36353077  0.55855559     0.76900
O367        O  0.02961326  0.32390987  0.75037691    -0.72300
O368        O  0.02966908  0.40316494  0.74952791    -0.72500
O369        O  0.02973163  0.36393420  0.79359113    -0.72400
O370        O  0.02949769  0.36313216  0.70633319    -0.72400
O371        O  0.47025048  0.36393955  0.70642112    -0.72300
O372        O  0.47048438  0.36312963  0.79367831    -0.72300
O373        O  0.47031560  0.40316448  0.75048739    -0.72300
O374        O  0.47036893  0.32390888  0.74962995    -0.72500
V375        V  0.02847579  0.36353612  0.74995900     1.35200
V376        V  0.47150696  0.36353593  0.75005268     1.35200
C377        C  0.49999112  0.31035802  0.75000135     0.77000
C378        C  0.49999276  0.41655523  0.75000826     0.77000
C379        C  0.50014052  0.36352977  0.80855383     0.76900
C380        C  0.49984117  0.36353355  0.69145836     0.76900
O381        O  0.22034031  0.32389096  0.50023699    -0.72300
O382        O  0.22029158  0.40315610  0.99998685    -0.72500
O383        O  0.22016513  0.36345781  0.95644120    -0.72400
O384        O  0.22051878  0.36359671  0.54370022    -0.72400
O385        O  0.27977519  0.36346783  0.54356118    -0.72300
O386        O  0.27942148  0.36358690  0.95630226    -0.72300
O387        O  0.27965595  0.40315448  0.50000553    -0.72300
O388        O  0.27959379  0.32389044  0.99977432    -0.72500
V389        V  0.22148377  0.36352399  0.50008173     1.35200
V390        V  0.27845662  0.36352317  0.49992054     1.35200
C391        C  0.24996614  0.31034295  0.50000479     0.77000
C392        C  0.24997524  0.41654631  0.49999596     0.77000
C393        C  0.24974537  0.36353152  0.94145348     0.76900
C394        C  0.25019512  0.36354711  0.55854893     0.76900
O395        O  0.27959745  0.32391052  0.74975957    -0.72300
O396        O  0.27965570  0.40316662  0.75038408    -0.72500
O397        O  0.27944283  0.36324726  0.79369253    -0.72400
O398        O  0.27975636  0.36383815  0.70643477    -0.72400
O399        O  0.22050520  0.36325472  0.70631059    -0.72300
O400        O  0.22019170  0.36382748  0.79356749    -0.72300
O401        O  0.22029757  0.40316713  0.74962572    -0.72300
O402        O  0.22034965  0.32390922  0.75023813    -0.72500
V403        V  0.27845959  0.36353917  0.75006653     1.35200
V404        V  0.22148936  0.36353851  0.74993637     1.35200
C405        C  0.24997360  0.31035786  0.75000047     0.77000
C406        C  0.24997771  0.41655629  0.75000556     0.77000
C407        C  0.24977324  0.36354536  0.80854897     0.76900
C408        C  0.25017404  0.36355978  0.69145369     0.76900
O409        O  0.47036438  0.17609097  0.99990933    -0.72300
O410        O  0.47030516  0.09683196  0.50001602    -0.72500
O411        O  0.47028500  0.13648834  0.54360750    -0.72400
O412        O  0.47043673  0.13643551  0.95634957    -0.72400
O413        O  0.02969279  0.13648528  0.95641387    -0.72300
O414        O  0.02954120  0.13643327  0.54367156    -0.72300
O415        O  0.02966974  0.09683204  0.00000584    -0.72300
O416        O  0.02961562  0.17609155  0.50011229    -0.72500
V417        V  0.47150265  0.13646218  0.49997424     1.35200
V418        V  0.02847506  0.13646173  0.50004709     1.35200
C419        C  0.99999007  0.18964169  0.50001225     0.77000
C420        C  0.99998709  0.08344204  0.50001043     0.77000
C421        C  0.99989285  0.13645396  0.55855818     0.76900
C422        C  0.00008524  0.13645182  0.94146314     0.76900
O423        O  0.02961792  0.17608745  0.75014943    -0.72300
O424        O  0.02967133  0.09682965  0.74983048    -0.72500
O425        O  0.02955323  0.13660769  0.70635955    -0.72400
O426        O  0.02968357  0.13630483  0.79361720    -0.72400
O427        O  0.47042897  0.13661017  0.79366158    -0.72300
O428        O  0.47029849  0.13630845  0.70640443    -0.72300
O429        O  0.47030814  0.09682972  0.75019225    -0.72300
O430        O  0.47036803  0.17608753  0.74986852    -0.72500
V431        V  0.02847710  0.13645856  0.74998819     1.35200
V432        V  0.47150539  0.13645939  0.75003300     1.35200
C433        C  0.49999347  0.18963868  0.75000657     0.77000
C434        C  0.49998931  0.08343996  0.75001151     0.77000
C435        C  0.49990753  0.13645149  0.69146318     0.76900
C436        C  0.50007430  0.13644925  0.80855818     0.76900
O437        O  0.22034628  0.17609360  0.00024836    -0.72300
O438        O  0.22030578  0.09682885  0.50000503    -0.72500
O439        O  0.22054530  0.13638935  0.54371428    -0.72400
O440        O  0.22015900  0.13652461  0.95645515    -0.72400
O441        O  0.27941532  0.13639548  0.95630412    -0.72300
O442        O  0.27980150  0.13653496  0.54356257    -0.72300
O443        O  0.27967002  0.09683656  0.00001716    -0.72300
O444        O  0.27959938  0.17610079  0.49976392    -0.72500
V445        V  0.22149384  0.13646064  0.50009610     1.35200
V446        V  0.27846661  0.13646818  0.49992182     1.35200
C447        C  0.24997063  0.18964489  0.50000387     0.75800
C448        C  0.24999036  0.08344173  0.50001147     0.77000
C449        C  0.25022607  0.13645110  0.55855676     0.76900
C450        C  0.24973488  0.13644979  0.94146142     0.76900
O451        O  0.27960608  0.17608260  0.74977992    -0.72300
O452        O  0.27967085  0.09682590  0.75039381    -0.72500
O453        O  0.27978465  0.13616359  0.70644920    -0.72400
O454        O  0.27943892  0.13673947  0.79370695    -0.72400
O455        O  0.22018781  0.13615617  0.79356948    -0.72300
O456        O  0.22053344  0.13673453  0.70631290    -0.72300
O457        O  0.22031292  0.09682020  0.74962489    -0.72300
O458        O  0.22035805  0.17607733  0.75024090    -0.72500
V459        V  0.27847174  0.13645386  0.75008126     1.35200
V460        V  0.22150153  0.13644835  0.74993815     1.35200
C461        C  0.24998068  0.18963192  0.75001149     0.77000
C462        C  0.24999357  0.08343364  0.75000901     0.77000
C463        C  0.25020678  0.13643913  0.69146201     0.76900
C464        C  0.24976490  0.13643876  0.80855715     0.76900
C465        C  0.28265174  0.13784528  0.89107140    -0.13800
C466        C  0.24966740  0.13642526  0.90746757     0.08300
C467        C  0.21667997  0.13498042  0.89106592    -0.13800
C468        C  0.21669065  0.13497030  0.85893913    -0.13800
C469        C  0.24968873  0.13641779  0.84255196     0.08300
C470        C  0.28266147  0.13784791  0.85896411    -0.13800
H471        H  0.30851498  0.13901313  0.90305296     0.12300
H472        H  0.19082225  0.13381260  0.90305553     0.12300
H473        H  0.19083903  0.13380016  0.84693869     0.12300
H474        H  0.30853230  0.13901325  0.84699529     0.12300
C475        C  0.28328704  0.13501929  0.60895087    -0.13800
C476        C  0.25029536  0.13642374  0.59255091     0.08300
C477        C  0.21730977  0.13780015  0.60894927    -0.13800
C478        C  0.21730260  0.13780252  0.64105664    -0.13800
C479        C  0.25028013  0.13641563  0.65746696     0.08300
C480        C  0.28327946  0.13500880  0.64107770    -0.13800
H481        H  0.30914624  0.13388524  0.59695988     0.12300
H482        H  0.19144245  0.13893386  0.59696905     0.12300
H483        H  0.19143056  0.13893352  0.65302669     0.12300
H484        H  0.30913465  0.13387228  0.65307647     0.12300
C485        C  0.03313215  0.13555883  0.89107133    -0.13800
C486        C  0.00011173  0.13642882  0.90746870     0.08300
C487        C  0.46709222  0.13727695  0.89106738    -0.13800
C488        C  0.46708860  0.13727928  0.85895440    -0.13800
C489        C  0.50010328  0.13642709  0.84255296     0.08300
C490        C  0.03312783  0.13555482  0.85895083    -0.13800
H491        H  0.05902099  0.13485750  0.90305946     0.12300
H492        H  0.44120156  0.13797638  0.90304743     0.12300
H493        H  0.44119461  0.13797807  0.84697416     0.12300
H494        H  0.05901458  0.13485300  0.84696307     0.12300
C495        C  0.03289376  0.13710710  0.60895356    -0.13800
C496        C  0.99986703  0.13643499  0.59255272     0.08300
C497        C  0.46683947  0.13574461  0.60895088    -0.13800
C498        C  0.46684485  0.13574063  0.64107128    -0.13800
C499        C  0.49987731  0.13643334  0.65746846     0.08300
C500        C  0.03289896  0.13710945  0.64106640    -0.13800
H501        H  0.05879090  0.13766170  0.59697292     0.12300
H502        H  0.44094411  0.13518845  0.59696365     0.12300
H503        H  0.44095218  0.13518404  0.65305944     0.12300
H504        H  0.05879901  0.13766342  0.65304565     0.12300
C505        C  0.21694311  0.26457953  0.75055042    -0.13800
C506        C  0.24997459  0.27947840  0.75000598     0.08300
C507        C  0.28300796  0.26458336  0.74946866    -0.13800
C508        C  0.28300986  0.23541015  0.74947237    -0.13800
C509        C  0.24997821  0.22051128  0.75001316     0.08300
C510        C  0.21694463  0.23540610  0.75055384    -0.13800
H511        H  0.19104054  0.27546358  0.75098264     0.12300
H512        H  0.30890926  0.27547018  0.74903481     0.12300
H513        H  0.30891233  0.22452646  0.74904073     0.12300
H514        H  0.19104387  0.22451921  0.75098829     0.12300
C515        C  0.28257824  0.26458313  0.49554211    -0.13800
C516        C  0.24996509  0.27947197  0.50000104     0.08300
C517        C  0.21735178  0.26458021  0.00445508    -0.13800
C518        C  0.21735274  0.23540446  0.00445421    -0.13800
C519        C  0.24996679  0.22051584  0.49999900     0.08300
C520        C  0.28257941  0.23540775  0.49554080    -0.13800
H521        H  0.30811621  0.27548271  0.49191818     0.12300
H522        H  0.19181380  0.27547737  0.00807907     0.12300
H523        H  0.19181528  0.22450476  0.00807776     0.12300
H524        H  0.30811726  0.22451115  0.49191648     0.12300
C525        C  0.21669589  0.36498405  0.89105777    -0.13800
C526        C  0.24968391  0.36355533  0.90745953     0.08300
C527        C  0.28266988  0.36215279  0.89106340    -0.13800
C528        C  0.28267887  0.36215123  0.85895521    -0.13800
C529        C  0.24970402  0.36356482  0.84254383     0.08300
C530        C  0.21670565  0.36499519  0.85893175    -0.13800
H531        H  0.19083682  0.36613827  0.90304691     0.12300
H532        H  0.30853360  0.36099863  0.90304538     0.12300
H533        H  0.30855009  0.36100022  0.84698517     0.12300
H534        H  0.19085282  0.36615235  0.84693273     0.12300
C535        C  0.21727745  0.36211148  0.60894046    -0.13800
C536        C  0.25025707  0.36358244  0.59254289     0.08300
C537        C  0.28324085  0.36508705  0.60894314    -0.13800
C538        C  0.28323206  0.36509748  0.64106929    -0.13800
C539        C  0.25024090  0.36359066  0.65745872     0.08300
C540        C  0.21726955  0.36210915  0.64104876    -0.13800
H541        H  0.19141677  0.36089848  0.59695880     0.12300
H542        H  0.30909362  0.36630014  0.59695332     0.12300
H543        H  0.30908191  0.36631321  0.65306800     0.12300
H544        H  0.19140450  0.36089897  0.65301944     0.12300
C545        C  0.46696234  0.26458361  0.74933716    -0.13800
C546        C  0.49999196  0.27948057  0.74999711     0.08300
C547        C  0.03302253  0.26458602  0.75065452    -0.13800
C548        C  0.03302353  0.23541344  0.75065205    -0.13800
C549        C  0.49999364  0.22051641  0.75000046     0.08300
C550        C  0.46696336  0.23541109  0.74934300    -0.13800
H551        H  0.44106311  0.27546801  0.74880987     0.12300
H552        H  0.05892169  0.27547271  0.75118053     0.12300
H553        H  0.05892295  0.22452873  0.75117929     0.12300
H554        H  0.44106407  0.22452435  0.74881657     0.12300
C555        C  0.03294776  0.26458701  0.00193644    -0.13800
C556        C  0.49998627  0.27947969  0.50001731     0.08300
C557        C  0.46702546  0.26458434  0.49810065    -0.13800
C558        C  0.46702734  0.23541124  0.49809581    -0.13800
C559        C  0.99998925  0.22051797  0.50001604     0.08300
C560        C  0.03294909  0.23541412  0.00193993    -0.13800
H561        H  0.05878560  0.27547708  0.00350434     0.12300
H562        H  0.44118775  0.27547179  0.49653320     0.12300
H563        H  0.44118934  0.22452209  0.49652800     0.12300
H564        H  0.05878782  0.22452744  0.00350740     0.12300
C565        C  0.46727609  0.36142933  0.89106262    -0.13800
C566        C  0.50019876  0.36352282  0.90746473     0.08300
C567        C  0.03312732  0.36561576  0.89106918    -0.13800
C568        C  0.03312256  0.36562017  0.85894498    -0.13800
C569        C  0.50019007  0.36352521  0.84254865     0.08300
C570        C  0.46727223  0.36142743  0.85895116    -0.13800
H571        H  0.44146393  0.35973093  0.90304289     0.12300
H572        H  0.05893353  0.36731414  0.90306220     0.12300
H573        H  0.05892723  0.36731933  0.84695242     0.12300
H574        H  0.44145704  0.35972979  0.84697149     0.12300
C575        C  0.46686510  0.36574630  0.60894510    -0.13800
C576        C  0.49977842  0.36352500  0.59254911     0.08300
C577        C  0.03268685  0.36130095  0.60895000    -0.13800
C578        C  0.03269217  0.36129906  0.64106140    -0.13800
C579        C  0.49978997  0.36352747  0.65746420     0.08300
C580        C  0.46687117  0.36575069  0.64106920    -0.13800
H581        H  0.44107081  0.36754980  0.59695216     0.12300
H582        H  0.05848567  0.35949667  0.59696863     0.12300
H583        H  0.05849502  0.35949548  0.65304081     0.12300
H584        H  0.44107967  0.36755493  0.65306283     0.12300
C585        C  0.39144971  0.49999446  0.75047014    -0.13800
C586        C  0.35853396  0.49999285  0.75046749    -0.15300
C587        C  0.10853384  0.50000290  0.74954850    -0.13800
C588        C  0.14144946  0.50000196  0.74954855    -0.15300
C589        C  0.35853194  0.99999118  0.49984940    -0.13800
C590        C  0.39144741  0.99999311  0.49985354    -0.15300
C591        C  0.14144733  0.00000355  0.50016048    -0.13800
C592        C  0.10853198  0.50000513  0.50015765    -0.15300
O593        O  0.44818010  0.50007340  0.47493919    -0.72300
O594        O  0.05189306  0.99992807  0.47509137    -0.72500
O595        O  0.49992982  0.96036582  0.47501007    -0.72400
O596        O  0.00013762  0.53963455  0.47501395    -0.72400
O597        O  0.49983731  0.53963178  0.02500224    -0.72300
O598        O  0.00005443  0.96036361  0.02499878    -0.72300
O599        O  0.05179972  0.50007711  0.02507279    -0.72300
O600        O  0.44808644  0.99991926  0.02492058    -0.72500
V601        V  0.50003464  0.00000039  0.47598632     1.35200
V602        V  0.99994505  0.99999794  0.02402587     1.35200
C603        C  0.43062239  0.49999544  0.99990516     0.77000
C604        C  0.06935720  0.00000380  0.00010665     0.77000
C605        C  0.49999246  0.94697700  0.50000399     0.76900
C606        C  0.99998663  0.55302046  0.50000879     0.76900
O607        O  0.44798336  0.49992217  0.22525285    -0.72300
O608        O  0.05169549  0.00007701  0.22478645    -0.72500
O609        O  0.49994964  0.96036542  0.22501494    -0.72400
O610        O  0.99973605  0.53963281  0.22501737    -0.72400
O611        O  0.50024453  0.53963134  0.27500460    -0.72300
O612        O  0.00003669  0.96036377  0.27500379    -0.72300
O613        O  0.05200063  0.49992513  0.27476724    -0.72300
O614        O  0.44828795  0.00007090  0.27523362    -0.72500
V615        V  0.49984443  0.99999929  0.22599064     1.35200
V616        V  0.00013930  0.99999779  0.27402967     1.35200
C617        C  0.43062479  0.99999602  0.25031793     0.77000
C618        C  0.06935893  0.00000193  0.24970188     0.77000
C619        C  0.49999336  0.94697721  0.25000905     0.76900
C620        C  0.49998926  0.55301907  0.25001122     0.76900
O621        O  0.19818697  0.99998934  0.02507454    -0.72300
O622        O  0.30189998  0.49999462  0.02491614    -0.72500
O623        O  0.25004419  0.53962732  0.02500268    -0.72400
O624        O  0.25004833  0.96035618  0.02499425    -0.72400
O625        O  0.24991677  0.96036108  0.47500573    -0.72300
O626        O  0.24994553  0.53963183  0.47501412    -0.72300
O627        O  0.30179206  0.99998732  0.47493451    -0.72300
O628        O  0.19807868  0.50000641  0.47509289    -0.72500
V629        V  0.25004266  0.49999182  0.02402412     1.35200
V630        V  0.24993595  0.49999648  0.47598464     1.35200
C631        C  0.18062206  0.49999971  0.00010926     0.77000
C632        C  0.31935694  0.49999062  0.99989999     0.77000
C633        C  0.24999490  0.55301778  0.00000955     0.76900
C634        C  0.24997945  0.94697037  0.99999860     0.76900
O635        O  0.19798848  0.00000287  0.27476596    -0.72300
O636        O  0.30170091  0.49998599  0.27522988    -0.72500
O637        O  0.24986288  0.53962678  0.27500238    -0.72400
O638        O  0.24983647  0.96036158  0.27500079    -0.72400
O639        O  0.25013357  0.96036313  0.22501223    -0.72300
O640        O  0.25013006  0.53962838  0.22501370    -0.72300
O641        O  0.30199484  0.99999856  0.22524877    -0.72300
O642        O  0.19828181  0.49999339  0.22478483    -0.72500
V643        V  0.24984988  0.99999425  0.27402693     1.35200
V644        V  0.25013287  0.99999574  0.22598761     1.35200
C645        C  0.18062435  0.99999938  0.24970098     0.77000
C646        C  0.31935882  0.99999209  0.25031396     0.77000
C647        C  0.24999665  0.55301400  0.25000833     0.76900
C648        C  0.24998163  0.94697592  0.25000625     0.76900
O649        O  0.47036077  0.82390480  0.00014344    -0.72300
O650        O  0.47031034  0.90316398  0.49970906    -0.72500
O651        O  0.47048948  0.86330383  0.45632347    -0.72400
O652        O  0.47023298  0.86376107  0.04358367    -0.72400
O653        O  0.02948698  0.86330504  0.04369126    -0.72300
O654        O  0.02974342  0.86375494  0.45643118    -0.72300
O655        O  0.02967070  0.90316344  0.00029991    -0.72300
O656        O  0.02961231  0.82390491  0.49987849    -0.72500
V657        V  0.47150246  0.86353371  0.99994636     1.35200
V658        V  0.02847414  0.86353290  0.00006863     1.35200
C659        C  0.49998612  0.81035486  0.00001309     0.77000
C660        C  0.49999130  0.91655426  0.00000371     0.77000
C661        C  0.50015158  0.86352720  0.44145883     0.76900
C662        C  0.49982488  0.86353078  0.05855562     0.76900
O663        O  0.02961325  0.82390988  0.25037689    -0.72300
O664        O  0.02966907  0.90316495  0.24952785    -0.72500
O665        O  0.02973161  0.86393423  0.29359108    -0.72400
O666        O  0.02949770  0.86313215  0.20633316    -0.72400
O667        O  0.47025040  0.86393958  0.20642111    -0.72300
O668        O  0.47048432  0.86312962  0.29367823    -0.72300
O669        O  0.47031555  0.90316450  0.25048738    -0.72300
O670        O  0.47036888  0.82390888  0.24962989    -0.72500
V671        V  0.02847579  0.86353613  0.24995896     1.35200
V672        V  0.47150691  0.86353595  0.25005264     1.35200
C673        C  0.49999107  0.81035803  0.25000132     0.77000
C674        C  0.49999271  0.91655525  0.25000821     0.77000
C675        C  0.50014045  0.86352978  0.30855376     0.76900
C676        C  0.49984107  0.86353356  0.19145834     0.76900
O677        O  0.22034033  0.82389094  0.00023699    -0.72300
O678        O  0.22029162  0.90315611  0.49998682    -0.72500
O679        O  0.22016517  0.86345781  0.45644116    -0.72400
O680        O  0.22051878  0.86359670  0.04370024    -0.72400
O681        O  0.27977519  0.86346786  0.04356121    -0.72300
O682        O  0.27942153  0.86358693  0.45630225    -0.72300
O683        O  0.27965593  0.90315449  0.00000554    -0.72300
O684        O  0.27959384  0.82389047  0.49977429    -0.72500
V685        V  0.22148376  0.86352399  0.00008174     1.35200
V686        V  0.27845661  0.86352319  0.99992054     1.35200
C687        C  0.24996616  0.81034296  0.00000480     0.77000
C688        C  0.24997522  0.91654632  0.99999600     0.77000
C689        C  0.24974541  0.86353153  0.44145346     0.76900
C690        C  0.25019514  0.86354712  0.05854894     0.76900
O691        O  0.27959745  0.82391050  0.24975952    -0.72300
O692        O  0.27965572  0.90316660  0.25038411    -0.72500
O693        O  0.27944287  0.86324718  0.29369253    -0.72400
O694        O  0.27975634  0.86383816  0.20643478    -0.72400
O695        O  0.22050519  0.86325469  0.20631063    -0.72300
O696        O  0.22019175  0.86382750  0.29356751    -0.72300
O697        O  0.22029760  0.90316711  0.24962573    -0.72300
O698        O  0.22034965  0.82390921  0.25023818    -0.72500
V699        V  0.27845960  0.86353914  0.25006653     1.35200
V700        V  0.22148938  0.86353850  0.24993640     1.35200
C701        C  0.24997359  0.81035784  0.25000046     0.77000
C702        C  0.24997773  0.91655627  0.25000556     0.77000
C703        C  0.24977333  0.86354533  0.30854898     0.76900
C704        C  0.25017400  0.86355977  0.19145373     0.76900
O705        O  0.47036440  0.67609103  0.49990937    -0.72300
O706        O  0.47030520  0.59683199  0.00001606    -0.72500
O707        O  0.47028513  0.63648839  0.04360751    -0.72400
O708        O  0.47043670  0.63643560  0.45634959    -0.72400
O709        O  0.02969279  0.63648528  0.45641383    -0.72300
O710        O  0.02954128  0.63643325  0.04367156    -0.72300
O711        O  0.02966972  0.59683204  0.50000582    -0.72300
O712        O  0.02961570  0.67609153  0.00011227    -0.72500
V713        V  0.47150274  0.63646221  0.99997426     1.35200
V714        V  0.02847512  0.63646172  0.00004707     1.35200
C715        C  0.99999020  0.68964170  0.00001225     0.77000
C716        C  0.99998711  0.58344205  0.00001041     0.77000
C717        C  0.99989296  0.63645398  0.05855817     0.76900
C718        C  0.00008521  0.63645187  0.44146312     0.76900
O719        O  0.02961792  0.67608745  0.25014944    -0.72300
O720        O  0.02967132  0.59682966  0.24983051    -0.72500
O721        O  0.02955325  0.63660768  0.20635956    -0.72400
O722        O  0.02968353  0.63630484  0.29361720    -0.72400
O723        O  0.47042893  0.63661018  0.29366156    -0.72300
O724        O  0.47029851  0.63630844  0.20640440    -0.72300
O725        O  0.47030813  0.59682972  0.25019225    -0.72300
O726        O  0.47036803  0.67608753  0.24986850    -0.72500
V727        V  0.02847708  0.63645856  0.24998820     1.35200
V728        V  0.47150537  0.63645939  0.25003298     1.35200
C729        C  0.49999347  0.68963869  0.25000655     0.77000
C730        C  0.49998930  0.58343996  0.25001154     0.77000
C731        C  0.49990757  0.63645149  0.19146318     0.76900
C732        C  0.50007420  0.63644926  0.30855817     0.76900
O733        O  0.22034631  0.67609361  0.50024836    -0.72300
O734        O  0.22030573  0.59682886  0.00000500    -0.72500
O735        O  0.22054527  0.63638936  0.04371427    -0.72400
O736        O  0.22015905  0.63652462  0.45645516    -0.72400
O737        O  0.27941536  0.63639552  0.45630415    -0.72300
O738        O  0.27980147  0.63653498  0.04356254    -0.72300
O739        O  0.27967004  0.59683657  0.50001718    -0.72300
O740        O  0.27959937  0.67610079  0.99976385    -0.72500
V741        V  0.22149381  0.63646066  0.00009607     1.35200
V742        V  0.27846658  0.63646817  0.99992179     1.35200
C743        C  0.24997066  0.68964489  0.00000382     0.75800
C744        C  0.24999031  0.58344174  0.00001144     0.77000
C745        C  0.25022597  0.63645111  0.05855673     0.76900
C746        C  0.24973494  0.63644981  0.44146146     0.76900
O747        O  0.27960605  0.67608260  0.24977995    -0.72300
O748        O  0.27967080  0.59682589  0.25039380    -0.72500
O749        O  0.27978461  0.63616361  0.20644917    -0.72400
O750        O  0.27943892  0.63673944  0.29370698    -0.72400
O751        O  0.22018782  0.63615620  0.29356953    -0.72300
O752        O  0.22053340  0.63673449  0.20631294    -0.72300
O753        O  0.22031287  0.59682020  0.24962496    -0.72300
O754        O  0.22035803  0.67607733  0.25024088    -0.72500
V755        V  0.27847172  0.63645386  0.25008127     1.35200
V756        V  0.22150151  0.63644834  0.24993819     1.35200
C757        C  0.24998066  0.68963192  0.25001147     0.77000
C758        C  0.24999351  0.58343364  0.25000905     0.77000
C759        C  0.25020675  0.63643912  0.19146202     0.76900
C760        C  0.24976494  0.63643877  0.30855720     0.76900
C761        C  0.28265196  0.63784530  0.39107150    -0.13800
C762        C  0.24966749  0.63642528  0.40746761     0.08300
C763        C  0.21667991  0.63498043  0.39106605    -0.13800
C764        C  0.21669086  0.63497032  0.35893925    -0.13800
C765        C  0.24968879  0.63641780  0.34255201     0.08300
C766        C  0.28266157  0.63784793  0.35896415    -0.13800
H767        H  0.30851499  0.63901314  0.40305299     0.12300
H768        H  0.19082249  0.63381262  0.40305550     0.12300
H769        H  0.19083900  0.63380017  0.34693870     0.12300
H770        H  0.30853232  0.63901326  0.34699531     0.12300
C771        C  0.28328689  0.63501924  0.10895087    -0.13800
C772        C  0.25029529  0.63642374  0.09255090     0.08300
C773        C  0.21730928  0.63780021  0.10894904    -0.13800
C774        C  0.21730257  0.63780255  0.14105658    -0.13800
C775        C  0.25028002  0.63641561  0.15746693     0.08300
C776        C  0.28327957  0.63500873  0.14107780    -0.13800
H777        H  0.30914626  0.63388513  0.09695979     0.12300
H778        H  0.19144280  0.63893394  0.09696917     0.12300
H779        H  0.19143038  0.63893359  0.15302680     0.12300
H780        H  0.30913422  0.63387216  0.15307635     0.12300
C781        C  0.03313191  0.63555886  0.39107125    -0.13800
C782        C  0.00011161  0.63642886  0.40746869     0.08300
C783        C  0.46709229  0.63727697  0.39106728    -0.13800
C784        C  0.46708838  0.63727930  0.35895435    -0.13800
C785        C  0.50010317  0.63642711  0.34255294     0.08300
C786        C  0.03312752  0.63555484  0.35895092    -0.13800
H787        H  0.05902096  0.63485752  0.40305937     0.12300
H788        H  0.44120122  0.63797641  0.40304753     0.12300
H789        H  0.44119457  0.63797808  0.34697419     0.12300
H790        H  0.05901468  0.63485301  0.34696305     0.12300
C791        C  0.03289401  0.63710710  0.10895346    -0.13800
C792        C  0.99986713  0.63643500  0.09255271     0.08300
C793        C  0.46683958  0.63574462  0.10895087    -0.13800
C794        C  0.46684490  0.63574062  0.14107130    -0.13800
C795        C  0.49987740  0.63643332  0.15746846     0.08300
C796        C  0.03289907  0.63710944  0.14106641    -0.13800
H797        H  0.05879082  0.63766170  0.09697293     0.12300
H798        H  0.44094424  0.63518846  0.09696363     0.12300
H799        H  0.44095237  0.63518404  0.15305939     0.12300
H800        H  0.05879907  0.63766340  0.15304569     0.12300
C801        C  0.21694310  0.76457952  0.25055037    -0.13800
C802        C  0.24997458  0.77947839  0.25000593     0.08300
C803        C  0.28300794  0.76458335  0.24946860    -0.13800
C804        C  0.28300981  0.73541015  0.24947231    -0.13800
C805        C  0.24997819  0.72051127  0.25001313     0.08300
C806        C  0.21694464  0.73540611  0.25055378    -0.13800
H807        H  0.19104051  0.77546357  0.25098253     0.12300
H808        H  0.30890926  0.77547016  0.24903472     0.12300
H809        H  0.30891235  0.72452644  0.24904065     0.12300
H810        H  0.19104382  0.72451921  0.25098819     0.12300
C811        C  0.28257828  0.76458314  0.99554202    -0.13800
C812        C  0.24996517  0.77947197  0.00000105     0.08300
C813        C  0.21735182  0.76458021  0.50445495    -0.13800
C814        C  0.21735281  0.73540452  0.50445409    -0.13800
C815        C  0.24996684  0.72051585  0.99999896     0.08300
C816        C  0.28257966  0.73540766  0.99554066    -0.13800
H817        H  0.30811625  0.77548278  0.99191793     0.12300
H818        H  0.19181371  0.77547740  0.50807880     0.12300
H819        H  0.19181516  0.72450479  0.50807752     0.12300
H820        H  0.30811710  0.72451123  0.99191627     0.12300
C821        C  0.21669596  0.86498408  0.39105778    -0.13800
C822        C  0.24968402  0.86355532  0.40745951     0.08300
C823        C  0.28266992  0.86215272  0.39106336    -0.13800
C824        C  0.28267911  0.86215114  0.35895514    -0.13800
C825        C  0.24970411  0.86356479  0.34254383     0.08300
C826        C  0.21670591  0.86499520  0.35893182    -0.13800
H827        H  0.19083700  0.86613836  0.40304679     0.12300
H828        H  0.30853379  0.86099850  0.40304548     0.12300
H829        H  0.30855003  0.86100006  0.34698519     0.12300
H830        H  0.19085276  0.86615240  0.34693270     0.12300
C831        C  0.21727745  0.86211149  0.10894047    -0.13800
C832        C  0.25025706  0.86358244  0.09254292     0.08300
C833        C  0.28324094  0.86508706  0.10894312    -0.13800
C834        C  0.28323212  0.86509749  0.14106938    -0.13800
C835        C  0.25024086  0.86359066  0.15745874     0.08300
C836        C  0.21726925  0.86210914  0.14104892    -0.13800
H837        H  0.19141676  0.86089851  0.09695873     0.12300
H838        H  0.30909344  0.86630017  0.09695340     0.12300
H839        H  0.30908180  0.86631321  0.15306805     0.12300
H840        H  0.19140476  0.86089896  0.15301935     0.12300
C841        C  0.46696232  0.76458361  0.24933716    -0.13800
C842        C  0.49999194  0.77948058  0.24999707     0.08300
C843        C  0.03302252  0.76458602  0.25065452    -0.13800
C844        C  0.03302353  0.73541345  0.25065205    -0.13800
C845        C  0.49999363  0.72051641  0.25000047     0.08300
C846        C  0.46696336  0.73541110  0.24934300    -0.13800
H847        H  0.44106310  0.77546801  0.24880987     0.12300
H848        H  0.05892169  0.77547272  0.25118054     0.12300
H849        H  0.05892296  0.72452874  0.25117929     0.12300
H850        H  0.44106406  0.72452434  0.24881659     0.12300
C851        C  0.03294787  0.76458702  0.50193653    -0.13800
C852        C  0.49998648  0.77947967  0.00001736     0.08300
C853        C  0.46702580  0.76458425  0.99810066    -0.13800
C854        C  0.46702780  0.73541129  0.99809582    -0.13800
C855        C  0.99998942  0.72051797  0.00001601     0.08300
C856        C  0.03294934  0.73541415  0.50194004    -0.13800
H857        H  0.05878597  0.77547724  0.50350453     0.12300
H858        H  0.44118795  0.77547163  0.99653323     0.12300
H859        H  0.44118939  0.72452205  0.99652799     0.12300
H860        H  0.05878790  0.72452754  0.50350757     0.12300
C861        C  0.46727614  0.86142934  0.39106243    -0.13800
C862        C  0.50019865  0.86352283  0.40746464     0.08300
C863        C  0.03312715  0.86561577  0.39106906    -0.13800
C864        C  0.03312253  0.86562018  0.35894493    -0.13800
C865        C  0.50018996  0.86352522  0.34254855     0.08300
C866        C  0.46727202  0.86142742  0.35895102    -0.13800
H867        H  0.44146366  0.85973094  0.40304288     0.12300
H868        H  0.05893357  0.86731415  0.40306215     0.12300
H869        H  0.05892724  0.86731932  0.34695241     0.12300
H870        H  0.44145693  0.85972978  0.34697140     0.12300
C871        C  0.46686493  0.86574632  0.10894510    -0.13800
C872        C  0.49977830  0.86352502  0.09254912     0.08300
C873        C  0.03268660  0.86130098  0.10895009    -0.13800
C874        C  0.03269205  0.86129907  0.14106130    -0.13800
C875        C  0.49978984  0.86352750  0.15746420     0.08300
C876        C  0.46687110  0.86575071  0.14106917    -0.13800
H877        H  0.44107070  0.86754982  0.09695219     0.12300
H878        H  0.05848591  0.85949668  0.09696854     0.12300
H879        H  0.05849505  0.85949549  0.15304069     0.12300
H880        H  0.44107945  0.86755497  0.15306289     0.12300
C881        C  0.39144972  0.99999448  0.25047012    -0.13800
C882        C  0.35853397  0.99999286  0.25046746    -0.15300
C883        C  0.10853384  0.00000292  0.24954852    -0.13800
C884        C  0.14144947  0.00000196  0.24954857    -0.15300
C885        C  0.35853195  0.49999119  0.99984941    -0.13800
C886        C  0.39144741  0.49999312  0.99985353    -0.15300
C887        C  0.14144734  0.50000355  0.00016049    -0.13800
C888        C  0.10853198  0.00000511  0.00015766    -0.15300
O889        O  0.44818015  0.50007340  0.97493918    -0.72300
O890        O  0.05189306  0.99992805  0.97509139    -0.72500
O891        O  0.49992983  0.96036580  0.97501010    -0.72400
O892        O  0.00013766  0.53963453  0.97501397    -0.72400
O893        O  0.49983723  0.53963180  0.52500224    -0.72300
O894        O  0.00005444  0.96036362  0.52499878    -0.72300
O895        O  0.05179968  0.50007714  0.52507277    -0.72300
O896        O  0.44808644  0.99991924  0.52492056    -0.72500
V897        V  0.50003463  0.00000037  0.97598634     1.35200
V898        V  0.99994508  0.99999795  0.52402588     1.35200
C899        C  0.43062235  0.49999544  0.49990517     0.77000
C900        C  0.06935723  0.00000379  0.50010663     0.77000
C901        C  0.49999251  0.94697699  0.00000403     0.76900
C902        C  0.99998672  0.55302045  0.00000880     0.76900
O903        O  0.44798341  0.49992212  0.72525283    -0.72300
O904        O  0.05169550  0.00007701  0.72478645    -0.72500
O905        O  0.49994954  0.96036540  0.72501497    -0.72400
O906        O  0.99973606  0.53963278  0.72501735    -0.72400
O907        O  0.50024461  0.53963133  0.77500458    -0.72300
O908        O  0.00003664  0.96036377  0.77500380    -0.72300
O909        O  0.05200066  0.49992516  0.77476722    -0.72300
O910        O  0.44828790  0.00007089  0.77523363    -0.72500
V911        V  0.49984438  0.99999928  0.72599064     1.35200
V912        V  0.00013929  0.99999779  0.77402966     1.35200
C913        C  0.43062474  0.99999602  0.75031794     0.77000
C914        C  0.06935894  0.00000191  0.74970188     0.77000
C915        C  0.49999328  0.94697720  0.75000909     0.76900
C916        C  0.49998935  0.55301905  0.75001120     0.76900
O917        O  0.19818700  0.99998939  0.52507454    -0.72300
O918        O  0.30189996  0.49999460  0.52491613    -0.72500
O919        O  0.25004420  0.53962731  0.52500268    -0.72400
O920        O  0.25004830  0.96035619  0.52499422    -0.72400
O921        O  0.24991680  0.96036108  0.97500575    -0.72300
O922        O  0.24994559  0.53963181  0.97501411    -0.72300
O923        O  0.30179208  0.99998732  0.97493456    -0.72300
O924        O  0.19807869  0.50000646  0.97509292    -0.72500
V925        V  0.25004265  0.49999182  0.52402410     1.35200
V926        V  0.24993595  0.49999648  0.97598465     1.35200
C927        C  0.18062204  0.49999970  0.50010923     0.77000
C928        C  0.31935693  0.49999063  0.49989998     0.77000
C929        C  0.24999489  0.55301779  0.50000957     0.76900
C930        C  0.24997940  0.94697038  0.49999858     0.76900
O931        O  0.19798846  0.00000287  0.77476593    -0.72300
O932        O  0.30170093  0.49998594  0.77522987    -0.72500
O933        O  0.24986295  0.53962679  0.77500236    -0.72400
O934        O  0.24983646  0.96036158  0.77500079    -0.72400
O935        O  0.25013357  0.96036313  0.72501223    -0.72300
O936        O  0.25013001  0.53962838  0.72501368    -0.72300
O937        O  0.30199485  0.99999854  0.72524879    -0.72300
O938        O  0.19828183  0.49999336  0.72478481    -0.72500
V939        V  0.24984985  0.99999424  0.77402692     1.35200
V940        V  0.25013288  0.99999574  0.72598760     1.35200
C941        C  0.18062435  0.99999939  0.74970095     0.77000
C942        C  0.31935881  0.99999208  0.75031399     0.77000
C943        C  0.24999665  0.55301401  0.75000830     0.76900
C944        C  0.24998163  0.94697592  0.75000625     0.76900
O945        O  0.47036084  0.82390481  0.50014336    -0.72300
O946        O  0.47031036  0.90316399  0.99970914    -0.72500
O947        O  0.47048942  0.86330385  0.95632355    -0.72400
O948        O  0.47023291  0.86376107  0.54358359    -0.72400
O949        O  0.02948703  0.86330503  0.54369122    -0.72300
O950        O  0.02974337  0.86375495  0.95643120    -0.72300
O951        O  0.02967074  0.90316343  0.50029988    -0.72300
O952        O  0.02961231  0.82390489  0.99987854    -0.72500
V953        V  0.47150248  0.86353370  0.49994627     1.35200
V954        V  0.02847415  0.86353290  0.50006859     1.35200
C955        C  0.49998630  0.81035488  0.50001304     0.77000
C956        C  0.49999126  0.91655427  0.50000366     0.77000
C957        C  0.50015151  0.86352720  0.94145893     0.76900
C958        C  0.49982477  0.86353080  0.55855558     0.76900
O959        O  0.02961322  0.82390988  0.75037693    -0.72300
O960        O  0.02966904  0.90316494  0.74952791    -0.72500
O961        O  0.02973153  0.86393421  0.79359114    -0.72400
O962        O  0.02949769  0.86313216  0.70633320    -0.72400
O963        O  0.47025030  0.86393952  0.70642117    -0.72300
O964        O  0.47048431  0.86312960  0.79367833    -0.72300
O965        O  0.47031546  0.90316446  0.75048741    -0.72300
O966        O  0.47036885  0.82390885  0.74962997    -0.72500
V967        V  0.02847575  0.86353612  0.74995902     1.35200
V968        V  0.47150687  0.86353590  0.75005271     1.35200
C969        C  0.49999110  0.81035798  0.75000135     0.77000
C970        C  0.49999261  0.91655523  0.75000825     0.77000
C971        C  0.50014048  0.86352977  0.80855384     0.76900
C972        C  0.49984092  0.86353355  0.69145834     0.76900
O973        O  0.22034040  0.82389095  0.50023697    -0.72300
O974        O  0.22029166  0.90315613  0.99998686    -0.72500
O975        O  0.22016515  0.86345784  0.95644118    -0.72400
O976        O  0.22051881  0.86359669  0.54370020    -0.72400
O977        O  0.27977523  0.86346788  0.54356115    -0.72300
O978        O  0.27942149  0.86358688  0.95630228    -0.72300
O979        O  0.27965591  0.90315453  0.50000553    -0.72300
O980        O  0.27959377  0.82389043  0.99977433    -0.72500
V981        V  0.22148379  0.86352398  0.50008171     1.35200
V982        V  0.27845665  0.86352323  0.49992051     1.35200
C983        C  0.24996635  0.81034297  0.50000476     0.77000
C984        C  0.24997517  0.91654633  0.49999596     0.77000
C985        C  0.24974535  0.86353152  0.94145350     0.76900
C986        C  0.25019509  0.86354713  0.55854892     0.76900
O987        O  0.27959759  0.82391051  0.74975957    -0.72300
O988        O  0.27965578  0.90316662  0.75038405    -0.72500
O989        O  0.27944298  0.86324726  0.79369255    -0.72400
O990        O  0.27975642  0.86383814  0.70643474    -0.72400
O991        O  0.22050526  0.86325473  0.70631064    -0.72300
O992        O  0.22019185  0.86382744  0.79356750    -0.72300
O993        O  0.22029765  0.90316710  0.74962576    -0.72300
O994        O  0.22034978  0.82390921  0.75023813    -0.72500
V995        V  0.27845972  0.86353916  0.75006652     1.35200
V996        V  0.22148949  0.86353850  0.74993639     1.35200
C997        C  0.24997375  0.81035786  0.75000046     0.77000
C998        C  0.24997777  0.91655627  0.75000556     0.77000
C999        C  0.24977348  0.86354534  0.80854898     0.76900
C1000       C  0.25017413  0.86355977  0.69145368     0.76900
O1001       O  0.47036433  0.67609098  0.99990930    -0.72300
O1002       O  0.47030515  0.59683201  0.50001610    -0.72500
O1003       O  0.47028524  0.63648840  0.54360758    -0.72400
O1004       O  0.47043682  0.63643555  0.95634956    -0.72400
O1005       O  0.02969292  0.63648528  0.95641380    -0.72300
O1006       O  0.02954111  0.63643327  0.54367157    -0.72300
O1007       O  0.02966987  0.59683202  0.00000578    -0.72300
O1008       O  0.02961556  0.67609156  0.50011229    -0.72500
V1009       V  0.47150272  0.63646224  0.49997432     1.35200
V1010       V  0.02847500  0.63646174  0.50004709     1.35200
C1011       C  0.99999012  0.68964172  0.50001226     0.77000
C1012       C  0.99998696  0.58344206  0.50001042     0.77000
C1013       C  0.99989275  0.63645399  0.55855817     0.76900
C1014       C  0.00008538  0.63645184  0.94146311     0.76900
O1015       O  0.02961793  0.67608747  0.75014939    -0.72300
O1016       O  0.02967129  0.59682965  0.74983044    -0.72500
O1017       O  0.02955318  0.63660768  0.70635952    -0.72400
O1018       O  0.02968360  0.63630482  0.79361716    -0.72400
O1019       O  0.47042902  0.63661013  0.79366160    -0.72300
O1020       O  0.47029862  0.63630841  0.70640437    -0.72300
O1021       O  0.47030825  0.59682969  0.75019222    -0.72300
O1022       O  0.47036808  0.67608749  0.74986849    -0.72500
V1023       V  0.02847708  0.63645856  0.74998814     1.35200
V1024       V  0.47150545  0.63645935  0.75003297     1.35200
C1025       C  0.49999344  0.68963864  0.75000657     0.77000
C1026       C  0.49998942  0.58343994  0.75001151     0.77000
C1027       C  0.49990776  0.63645148  0.69146317     0.76900
C1028       C  0.50007428  0.63644922  0.80855820     0.76900
O1029       O  0.22034619  0.67609356  0.00024833    -0.72300
O1030       O  0.22030575  0.59682888  0.50000502    -0.72500
O1031       O  0.22054532  0.63638938  0.54371424    -0.72400
O1032       O  0.22015892  0.63652459  0.95645510    -0.72400
O1033       O  0.27941525  0.63639549  0.95630408    -0.72300
O1034       O  0.27980153  0.63653495  0.54356260    -0.72300
O1035       O  0.27967002  0.59683657  0.00001713    -0.72300
O1036       O  0.27959947  0.67610076  0.49976395    -0.72500
V1037       V  0.22149390  0.63646069  0.50009609     1.35200
V1038       V  0.27846666  0.63646816  0.49992186     1.35200
C1039       C  0.24997073  0.68964491  0.50000388     0.75800
C1040       C  0.24999032  0.58344174  0.50001149     0.77000
C1041       C  0.25022610  0.63645110  0.55855675     0.76900
C1042       C  0.24973475  0.63644978  0.94146138     0.76900
O1043       O  0.27960606  0.67608259  0.74977987    -0.72300
O1044       O  0.27967078  0.59682590  0.75039379    -0.72500
O1045       O  0.27978462  0.63616357  0.70644918    -0.72400
O1046       O  0.27943885  0.63673948  0.79370692    -0.72400
O1047       O  0.22018776  0.63615618  0.79356943    -0.72300
O1048       O  0.22053341  0.63673453  0.70631289    -0.72300
O1049       O  0.22031285  0.59682021  0.74962487    -0.72300
O1050       O  0.22035806  0.67607737  0.75024087    -0.72500
V1051       V  0.27847170  0.63645386  0.75008123     1.35200
V1052       V  0.22150150  0.63644837  0.74993812     1.35200
C1053       C  0.24998070  0.68963193  0.75001144     0.77000
C1054       C  0.24999350  0.58343365  0.75000899     0.77000
C1055       C  0.25020667  0.63643912  0.69146198     0.76900
C1056       C  0.24976488  0.63643877  0.80855710     0.76900
C1057       C  0.28265127  0.63784529  0.89107118    -0.13800
C1058       C  0.24966730  0.63642525  0.90746749     0.08300
C1059       C  0.21667979  0.63498036  0.89106588    -0.13800
C1060       C  0.21669046  0.63497024  0.85893899    -0.13800
C1061       C  0.24968864  0.63641778  0.84255189     0.08300
C1062       C  0.28266180  0.63784797  0.85896385    -0.13800
H1063       H  0.30851514  0.63901320  0.90305313     0.12300
H1064       H  0.19082235  0.63381247  0.90305541     0.12300
H1065       H  0.19083892  0.63380005  0.84693856     0.12300
H1066       H  0.30853182  0.63901332  0.84699551     0.12300
C1067       C  0.28328713  0.63501925  0.60895078    -0.13800
C1068       C  0.25029528  0.63642373  0.59255089     0.08300
C1069       C  0.21730985  0.63780011  0.60894932    -0.13800
C1070       C  0.21730238  0.63780249  0.64105667    -0.13800
C1071       C  0.25028005  0.63641560  0.65746693     0.08300
C1072       C  0.28327902  0.63500878  0.64107752    -0.13800
H1073       H  0.30914597  0.63388521  0.59696005     0.12300
H1074       H  0.19144214  0.63893384  0.59696888     0.12300
H1075       H  0.19143066  0.63893343  0.65302657     0.12300
H1076       H  0.30913492  0.63387218  0.65307663     0.12300
C1077       C  0.03313228  0.63555878  0.89107132    -0.13800
C1078       C  0.00011179  0.63642883  0.90746864     0.08300
C1079       C  0.46709276  0.63727699  0.89106728    -0.13800
C1080       C  0.46708857  0.63727932  0.85895440    -0.13800
C1081       C  0.50010339  0.63642707  0.84255298     0.08300
C1082       C  0.03312799  0.63555476  0.85895070    -0.13800
H1083       H  0.05902085  0.63485738  0.90305936     0.12300
H1084       H  0.44120134  0.63797648  0.90304771     0.12300
H1085       H  0.44119498  0.63797815  0.84697445     0.12300
H1086       H  0.05901454  0.63485290  0.84696300     0.12300
C1087       C  0.03289362  0.63710711  0.60895352    -0.13800
C1088       C  0.99986688  0.63643501  0.59255269     0.08300
C1089       C  0.46683988  0.63574464  0.60895083    -0.13800
C1090       C  0.46684545  0.63574065  0.64107113    -0.13800
C1091       C  0.49987765  0.63643333  0.65746844     0.08300
C1092       C  0.03289857  0.63710945  0.64106624    -0.13800
H1093       H  0.05879073  0.63766172  0.59697297     0.12300
H1094       H  0.44094460  0.63518849  0.59696371     0.12300
H1095       H  0.44095238  0.63518405  0.65305938     0.12300
H1096       H  0.05879910  0.63766342  0.65304567     0.12300
C1097       C  0.21694316  0.76457959  0.75055045    -0.13800
C1098       C  0.24997474  0.77947841  0.75000595     0.08300
C1099       C  0.28300825  0.76458342  0.74946858    -0.13800
C1100       C  0.28300994  0.73541014  0.74947228    -0.13800
C1101       C  0.24997828  0.72051130  0.75001311     0.08300
C1102       C  0.21694476  0.73540614  0.75055385    -0.13800
H1103       H  0.19104077  0.77546358  0.75098268     0.12300
H1104       H  0.30890928  0.77547010  0.74903467     0.12300
H1105       H  0.30891239  0.72452638  0.74904060     0.12300
H1106       H  0.19104396  0.72451925  0.75098834     0.12300
C1107       C  0.28257888  0.76458331  0.49554201    -0.13800
C1108       C  0.24996534  0.77947200  0.50000100     0.08300
C1109       C  0.21735123  0.76458037  0.00445515    -0.13800
C1110       C  0.21735270  0.73540451  0.00445419    -0.13800
C1111       C  0.24996705  0.72051587  0.49999898     0.08300
C1112       C  0.28257944  0.73540786  0.49554079    -0.13800
H1113       H  0.30811612  0.77548256  0.49191818     0.12300
H1114       H  0.19181405  0.77547720  0.00807901     0.12300
H1115       H  0.19181485  0.72450457  0.00807780     0.12300
H1116       H  0.30811784  0.72451095  0.49191641     0.12300
C1117       C  0.21669567  0.86498410  0.89105792    -0.13800
C1118       C  0.24968403  0.86355532  0.90745954     0.08300
C1119       C  0.28266993  0.86215274  0.89106342    -0.13800
C1120       C  0.28267938  0.86215115  0.85895511    -0.13800
C1121       C  0.24970421  0.86356480  0.84254385     0.08300
C1122       C  0.21670621  0.86499520  0.85893189    -0.13800
H1123       H  0.19083736  0.86613834  0.90304659     0.12300
H1124       H  0.30853387  0.86099852  0.90304563     0.12300
H1125       H  0.30854990  0.86100010  0.84698540     0.12300
H1126       H  0.19085268  0.86615242  0.84693247     0.12300
C1127       C  0.21727723  0.86211149  0.60894038    -0.13800
C1128       C  0.25025708  0.86358246  0.59254287     0.08300
C1129       C  0.28324048  0.86508705  0.60894330    -0.13800
C1130       C  0.28323216  0.86509749  0.64106930    -0.13800
C1131       C  0.25024090  0.86359067  0.65745872     0.08300
C1132       C  0.21726991  0.86210918  0.64104860    -0.13800
H1133       H  0.19141698  0.86089852  0.59695898     0.12300
H1134       H  0.30909402  0.86630021  0.59695311     0.12300
H1135       H  0.30908179  0.86631322  0.65306780     0.12300
H1136       H  0.19140409  0.86089894  0.65301968     0.12300
C1137       C  0.46696270  0.76458340  0.74933717    -0.13800
C1138       C  0.49999192  0.77948053  0.74999711     0.08300
C1139       C  0.03302252  0.76458607  0.75065452    -0.13800
C1140       C  0.03302341  0.73541347  0.75065204    -0.13800
C1141       C  0.49999364  0.72051636  0.75000046     0.08300
C1142       C  0.46696297  0.73541089  0.74934299    -0.13800
H1143       H  0.44106271  0.77546819  0.74880986     0.12300
H1144       H  0.05892155  0.77547268  0.75118056     0.12300
H1145       H  0.05892288  0.72452876  0.75117928     0.12300
H1146       H  0.44106441  0.72452452  0.74881657     0.12300
C1147       C  0.03294838  0.76458718  0.00193657    -0.13800
C1148       C  0.49998661  0.77947970  0.50001733     0.08300
C1149       C  0.46702631  0.76458413  0.49810070    -0.13800
C1150       C  0.46702771  0.73541125  0.49809583    -0.13800
C1151       C  0.99998925  0.72051799  0.50001604     0.08300
C1152       C  0.03294929  0.73541422  0.00194003    -0.13800
H1153       H  0.05878558  0.77547704  0.00350452     0.12300
H1154       H  0.44118762  0.77547188  0.49653319     0.12300
H1155       H  0.44118984  0.72452231  0.49652803     0.12300
H1156       H  0.05878836  0.72452732  0.00350759     0.12300
C1157       C  0.46727568  0.86142933  0.89106274    -0.13800
C1158       C  0.50019861  0.86352284  0.90746475     0.08300
C1159       C  0.03312725  0.86561578  0.89106916    -0.13800
C1160       C  0.03312237  0.86562018  0.85894494    -0.13800
C1161       C  0.50019000  0.86352521  0.84254867     0.08300
C1162       C  0.46727230  0.86142745  0.85895122    -0.13800
H1163       H  0.44146401  0.85973099  0.90304273     0.12300
H1164       H  0.05893330  0.86731415  0.90306206     0.12300
H1165       H  0.05892712  0.86731932  0.84695233     0.12300
H1166       H  0.44145682  0.85972978  0.84697132     0.12300
C1167       C  0.46686463  0.86574636  0.60894500    -0.13800
C1168       C  0.49977812  0.86352505  0.59254909     0.08300
C1169       C  0.03268665  0.86130099  0.60895009    -0.13800
C1170       C  0.03269251  0.86129905  0.64106146    -0.13800
C1171       C  0.49978962  0.86352750  0.65746419     0.08300
C1172       C  0.46687084  0.86575073  0.64106915    -0.13800
H1173       H  0.44107056  0.86754985  0.59695211     0.12300
H1174       H  0.05848613  0.85949669  0.59696835     0.12300
H1175       H  0.05849483  0.85949551  0.65304057     0.12300
H1176       H  0.44107928  0.86755496  0.65306289     0.12300
C1177       C  0.39144969  0.99999448  0.75047016    -0.13800
C1178       C  0.35853395  0.99999285  0.75046751    -0.15300
C1179       C  0.10853385  0.00000291  0.74954853    -0.13800
C1180       C  0.14144947  0.00000197  0.74954854    -0.15300
C1181       C  0.35853192  0.49999119  0.49984942    -0.13800
C1182       C  0.39144738  0.49999311  0.49985355    -0.15300
C1183       C  0.14144731  0.50000355  0.50016045    -0.13800
C1184       C  0.10853201  0.00000510  0.50015765    -0.15300
O1185       O  0.94818012  0.00007341  0.47493920    -0.72300
O1186       O  0.55189304  0.49992808  0.47509139    -0.72500
O1187       O  0.99992984  0.46036582  0.47501008    -0.72400
O1188       O  0.50013768  0.03963454  0.47501396    -0.72400
O1189       O  0.99983729  0.03963179  0.02500225    -0.72300
O1190       O  0.50005448  0.46036361  0.02499878    -0.72300
O1191       O  0.55179971  0.00007707  0.02507279    -0.72300
O1192       O  0.94808644  0.49991925  0.02492057    -0.72500
V1193       V  0.00003463  0.50000039  0.47598632     1.35200
V1194       V  0.49994508  0.49999794  0.02402587     1.35200
C1195       C  0.93062237  0.99999543  0.99990515     0.77000
C1196       C  0.56935722  0.50000379  0.00010664     0.77000
C1197       C  0.99999251  0.44697701  0.50000401     0.76900
C1198       C  0.49998672  0.05302045  0.50000881     0.76900
O1199       O  0.94798337  0.99992217  0.22525285    -0.72300
O1200       O  0.55169548  0.50007702  0.22478645    -0.72500
O1201       O  0.99994960  0.46036541  0.22501494    -0.72400
O1202       O  0.49973609  0.03963281  0.22501736    -0.72400
O1203       O  0.00024452  0.03963134  0.27500459    -0.72300
O1204       O  0.50003665  0.46036377  0.27500379    -0.72300
O1205       O  0.55200068  0.99992515  0.27476723    -0.72300
O1206       O  0.94828790  0.50007093  0.27523361    -0.72500
V1207       V  0.99984439  0.49999929  0.22599064     1.35200
V1208       V  0.50013928  0.49999779  0.27402967     1.35200
C1209       C  0.93062474  0.49999604  0.25031791     0.77000
C1210       C  0.56935891  0.50000193  0.24970189     0.77000
C1211       C  0.99999326  0.44697720  0.25000905     0.76900
C1212       C  0.99998925  0.05301906  0.25001121     0.76900
O1213       O  0.69818696  0.49998933  0.02507453    -0.72300
O1214       O  0.80189997  0.99999458  0.02491614    -0.72500
O1215       O  0.75004424  0.03962732  0.02500267    -0.72400
O1216       O  0.75004835  0.46035618  0.02499425    -0.72400
O1217       O  0.74991671  0.46036107  0.47500573    -0.72300
O1218       O  0.74994552  0.03963182  0.47501412    -0.72300
O1219       O  0.80179204  0.49998729  0.47493450    -0.72300
O1220       O  0.69807868  0.00000640  0.47509290    -0.72500
V1221       V  0.75004265  0.99999182  0.02402412     1.35200
V1222       V  0.74993595  0.99999648  0.47598464     1.35200
C1223       C  0.68062205  0.99999972  0.00010925     0.77000
C1224       C  0.81935693  0.99999059  0.99989999     0.77000
C1225       C  0.74999494  0.05301778  0.00000954     0.76900
C1226       C  0.74997946  0.44697036  0.99999860     0.76900
O1227       O  0.69798846  0.50000289  0.27476596    -0.72300
O1228       O  0.80170091  0.99998599  0.27522989    -0.72500
O1229       O  0.74986288  0.03962679  0.27500237    -0.72400
O1230       O  0.74983644  0.46036159  0.27500079    -0.72400
O1231       O  0.75013354  0.46036315  0.22501223    -0.72300
O1232       O  0.75013007  0.03962838  0.22501369    -0.72300
O1233       O  0.80199479  0.49999858  0.22524876    -0.72300
O1234       O  0.69828183  0.99999339  0.22478482    -0.72500
V1235       V  0.74984985  0.49999426  0.27402693     1.35200
V1236       V  0.75013283  0.49999575  0.22598761     1.35200
C1237       C  0.68062432  0.49999939  0.24970099     0.77000
C1238       C  0.81935878  0.49999210  0.25031395     0.77000
C1239       C  0.74999665  0.05301400  0.25000832     0.76900
C1240       C  0.74998158  0.44697594  0.25000625     0.76900
O1241       O  0.97036075  0.32390483  0.00014339    -0.72300
O1242       O  0.97031036  0.40316399  0.49970910    -0.72500
O1243       O  0.97048942  0.36330385  0.45632350    -0.72400
O1244       O  0.97023294  0.36376107  0.04358363    -0.72400
O1245       O  0.52948695  0.36330499  0.04369128    -0.72300
O1246       O  0.52974336  0.36375491  0.45643115    -0.72300
O1247       O  0.52967075  0.40316341  0.00029993    -0.72300
O1248       O  0.52961224  0.32390484  0.49987846    -0.72500
V1249       V  0.97150247  0.36353372  0.99994632     1.35200
V1250       V  0.52847415  0.36353286  0.00006865     1.35200
C1251       C  0.99998609  0.31035486  0.00001305     0.77000
C1252       C  0.99999134  0.41655426  0.00000371     0.77000
C1253       C  0.00015155  0.36352721  0.44145885     0.76900
C1254       C  0.99982480  0.36353076  0.05855560     0.76900
O1255       O  0.52961324  0.32390986  0.25037686    -0.72300
O1256       O  0.52966904  0.40316496  0.24952782    -0.72500
O1257       O  0.52973165  0.36393423  0.29359105    -0.72400
O1258       O  0.52949764  0.36313215  0.20633314    -0.72400
O1259       O  0.97025038  0.36393956  0.20642111    -0.72300
O1260       O  0.97048430  0.36312958  0.29367826    -0.72300
O1261       O  0.97031547  0.40316448  0.25048738    -0.72300
O1262       O  0.97036890  0.32390884  0.24962988    -0.72500
V1263       V  0.52847578  0.36353613  0.24995893     1.35200
V1264       V  0.97150687  0.36353591  0.25005264     1.35200
C1265       C  0.99999108  0.31035801  0.25000131     0.77000
C1266       C  0.99999263  0.41655524  0.25000820     0.77000
C1267       C  0.00014039  0.36352976  0.30855376     0.76900
C1268       C  0.99984103  0.36353355  0.19145832     0.76900
O1269       O  0.72034030  0.32389095  0.00023699    -0.72300
O1270       O  0.72029158  0.40315610  0.49998682    -0.72500
O1271       O  0.72016511  0.36345779  0.45644114    -0.72400
O1272       O  0.72051876  0.36359668  0.04370024    -0.72400
O1273       O  0.77977517  0.36346784  0.04356119    -0.72300
O1274       O  0.77942146  0.36358689  0.45630226    -0.72300
O1275       O  0.77965592  0.40315448  0.00000554    -0.72300
O1276       O  0.77959374  0.32389042  0.49977429    -0.72500
V1277       V  0.72148374  0.36352397  0.00008174     1.35200
V1278       V  0.77845660  0.36352316  0.99992055     1.35200
C1279       C  0.74996619  0.31034292  0.00000481     0.77000
C1280       C  0.74997520  0.41654631  0.99999600     0.77000
C1281       C  0.74974526  0.36353151  0.44145346     0.76900
C1282       C  0.75019506  0.36354711  0.05854894     0.76900
O1283       O  0.77959751  0.32391052  0.24975952    -0.72300
O1284       O  0.77965573  0.40316663  0.25038410    -0.72500
O1285       O  0.77944290  0.36324724  0.29369256    -0.72400
O1286       O  0.77975638  0.36383819  0.20643477    -0.72400
O1287       O  0.72050522  0.36325468  0.20631064    -0.72300
O1288       O  0.72019177  0.36382751  0.29356747    -0.72300
O1289       O  0.72029760  0.40316712  0.24962571    -0.72300
O1290       O  0.72034970  0.32390924  0.25023818    -0.72500
V1291       V  0.77845967  0.36353918  0.25006653     1.35200
V1292       V  0.72148943  0.36353851  0.24993639     1.35200
C1293       C  0.74997371  0.31035788  0.25000046     0.77000
C1294       C  0.74997772  0.41655629  0.25000555     0.77000
C1295       C  0.74977340  0.36354535  0.30854896     0.76900
C1296       C  0.75017408  0.36355978  0.19145371     0.76900
O1297       O  0.97036434  0.17609100  0.49990934    -0.72300
O1298       O  0.97030512  0.09683196  0.00001610    -0.72500
O1299       O  0.97028506  0.13648838  0.04360752    -0.72400
O1300       O  0.97043676  0.13643556  0.45634956    -0.72400
O1301       O  0.52969289  0.13648528  0.45641388    -0.72300
O1302       O  0.52954130  0.13643325  0.04367152    -0.72300
O1303       O  0.52966978  0.09683205  0.50000588    -0.72300
O1304       O  0.52961566  0.17609152  0.00011224    -0.72500
V1305       V  0.97150263  0.13646218  0.99997427     1.35200
V1306       V  0.52847509  0.13646172  0.00004706     1.35200
C1307       C  0.49999011  0.18964167  0.00001223     0.77000
C1308       C  0.49998712  0.08344203  0.00001043     0.77000
C1309       C  0.49989299  0.13645398  0.05855817     0.76900
C1310       C  0.50008539  0.13645184  0.44146313     0.76900
O1311       O  0.52961799  0.17608745  0.25014942    -0.72300
O1312       O  0.52967141  0.09682965  0.24983049    -0.72500
O1313       O  0.52955331  0.13660768  0.20635955    -0.72400
O1314       O  0.52968367  0.13630484  0.29361718    -0.72400
O1315       O  0.97042900  0.13661018  0.29366157    -0.72300
O1316       O  0.97029852  0.13630844  0.20640441    -0.72300
O1317       O  0.97030815  0.09682972  0.25019226    -0.72300
O1318       O  0.97036810  0.17608752  0.24986851    -0.72500
V1319       V  0.52847716  0.13645856  0.24998819     1.35200
V1320       V  0.97150542  0.13645939  0.25003299     1.35200
C1321       C  0.99999359  0.18963866  0.25000654     0.77000
C1322       C  0.99998930  0.08343995  0.25001153     0.77000
C1323       C  0.99990756  0.13645147  0.19146317     0.76900
C1324       C  0.00007428  0.13644924  0.30855817     0.76900
O1325       O  0.72034621  0.17609356  0.50024836    -0.72300
O1326       O  0.72030576  0.09682882  0.00000500    -0.72500
O1327       O  0.72054531  0.13638931  0.04371427    -0.72400
O1328       O  0.72015895  0.13652459  0.45645516    -0.72400
O1329       O  0.77941526  0.13639551  0.45630412    -0.72300
O1330       O  0.77980151  0.13653497  0.04356252    -0.72300
O1331       O  0.77966999  0.09683656  0.50001717    -0.72300
O1332       O  0.77959935  0.17610075  0.99976384    -0.72500
V1333       V  0.72149381  0.13646062  0.00009607     1.35200
V1334       V  0.77846657  0.13646816  0.99992176     1.35200
C1335       C  0.74997055  0.18964486  0.00000384     0.75800
C1336       C  0.74999035  0.08344172  0.00001143     0.77000
C1337       C  0.75022608  0.13645108  0.05855670     0.76900
C1338       C  0.74973483  0.13644980  0.44146145     0.76900
O1339       O  0.77960600  0.17608261  0.24977995    -0.72300
O1340       O  0.77967077  0.09682591  0.25039381    -0.72500
O1341       O  0.77978461  0.13616363  0.20644918    -0.72400
O1342       O  0.77943881  0.13673946  0.29370699    -0.72400
O1343       O  0.72018770  0.13615621  0.29356950    -0.72300
O1344       O  0.72053340  0.13673449  0.20631287    -0.72300
O1345       O  0.72031283  0.09682020  0.24962492    -0.72300
O1346       O  0.72035798  0.17607737  0.25024084    -0.72500
V1347       V  0.77847166  0.13645388  0.25008127     1.35200
V1348       V  0.72150145  0.13644836  0.24993814     1.35200
C1349       C  0.74998056  0.18963195  0.25001146     0.77000
C1350       C  0.74999349  0.08343364  0.25000903     0.77000
C1351       C  0.75020675  0.13643913  0.19146200     0.76900
C1352       C  0.74976480  0.13643878  0.30855717     0.76900
C1353       C  0.78265182  0.13784534  0.39107148    -0.13800
C1354       C  0.74966735  0.13642527  0.40746758     0.08300
C1355       C  0.71667980  0.13498038  0.39106602    -0.13800
C1356       C  0.71669052  0.13497027  0.35893914    -0.13800
C1357       C  0.74968864  0.13641781  0.34255199     0.08300
C1358       C  0.78266146  0.13784798  0.35896408    -0.13800
H1359       H  0.80851478  0.13901324  0.40305294     0.12300
H1360       H  0.69082234  0.13381252  0.40305555     0.12300
H1361       H  0.69083900  0.13380010  0.34693874     0.12300
H1362       H  0.80853212  0.13901339  0.34699529     0.12300
C1363       C  0.78328734  0.13501927  0.10895069    -0.13800
C1364       C  0.75029540  0.13642373  0.09255087     0.08300
C1365       C  0.71730944  0.13780015  0.10894902    -0.13800
C1366       C  0.71730259  0.13780251  0.14105658    -0.13800
C1367       C  0.75028012  0.13641563  0.15746690     0.08300
C1368       C  0.78327952  0.13500879  0.14107772    -0.13800
H1369       H  0.80914605  0.13388525  0.09695993     0.12300
H1370       H  0.69144281  0.13893383  0.09696908     0.12300
H1371       H  0.69143063  0.13893350  0.15302666     0.12300
H1372       H  0.80913447  0.13387229  0.15307650     0.12300
C1373       C  0.53313242  0.13555884  0.39107137    -0.13800
C1374       C  0.50011187  0.13642883  0.40746869     0.08300
C1375       C  0.96709271  0.13727695  0.39106714    -0.13800
C1376       C  0.96708850  0.13727929  0.35895433    -0.13800
C1377       C  0.00010332  0.13642710  0.34255292     0.08300
C1378       C  0.53312790  0.13555482  0.35895084    -0.13800
H1379       H  0.55902098  0.13485750  0.40305933     0.12300
H1380       H  0.94120114  0.13797640  0.40304760     0.12300
H1381       H  0.94119475  0.13797807  0.34697429     0.12300
H1382       H  0.55901484  0.13485301  0.34696299     0.12300
C1383       C  0.53289407  0.13710711  0.10895347    -0.13800
C1384       C  0.49986722  0.13643502  0.09255270     0.08300
C1385       C  0.96683955  0.13574463  0.10895086    -0.13800
C1386       C  0.96684487  0.13574062  0.14107130    -0.13800
C1387       C  0.99987738  0.13643332  0.15746844     0.08300
C1388       C  0.53289916  0.13710945  0.14106639    -0.13800
H1389       H  0.55879101  0.13766171  0.09697287     0.12300
H1390       H  0.94094421  0.13518847  0.09696363     0.12300
H1391       H  0.94095235  0.13518404  0.15305939     0.12300
H1392       H  0.55879915  0.13766341  0.15304567     0.12300
C1393       C  0.71694321  0.26457957  0.25055038    -0.13800
C1394       C  0.74997464  0.27947843  0.25000592     0.08300
C1395       C  0.78300837  0.26458352  0.24946860    -0.13800
C1396       C  0.78300948  0.23541029  0.24947231    -0.13800
C1397       C  0.74997816  0.22051131  0.25001312     0.08300
C1398       C  0.71694452  0.23540613  0.25055378    -0.13800
H1399       H  0.69104043  0.27546375  0.25098254     0.12300
H1400       H  0.80890894  0.27546994  0.24903476     0.12300
H1401       H  0.80891261  0.22452621  0.24904065     0.12300
H1402       H  0.69104401  0.22451938  0.25098816     0.12300
C1403       C  0.78257835  0.26458315  0.99554201    -0.13800
C1404       C  0.74996508  0.27947193  0.00000106     0.08300
C1405       C  0.71735160  0.26458019  0.50445498    -0.13800
C1406       C  0.71735262  0.23540446  0.50445411    -0.13800
C1407       C  0.74996677  0.22051580  0.99999898     0.08300
C1408       C  0.78257927  0.23540774  0.99554071    -0.13800
H1409       H  0.80811591  0.27548256  0.99191798     0.12300
H1410       H  0.69181362  0.27547736  0.50807881     0.12300
H1411       H  0.69181497  0.22450469  0.50807755     0.12300
H1412       H  0.80811740  0.22451101  0.99191620     0.12300
C1413       C  0.71669557  0.36498405  0.39105788    -0.13800
C1414       C  0.74968393  0.36355532  0.40745949     0.08300
C1415       C  0.78266946  0.36215279  0.39106320    -0.13800
C1416       C  0.78267946  0.36215119  0.35895497    -0.13800
C1417       C  0.74970407  0.36356482  0.34254382     0.08300
C1418       C  0.71670598  0.36499517  0.35893182    -0.13800
H1419       H  0.69083728  0.36613820  0.40304657     0.12300
H1420       H  0.80853407  0.36099859  0.40304574     0.12300
H1421       H  0.80854959  0.36100025  0.34698550     0.12300
H1422       H  0.69085252  0.36615234  0.34693246     0.12300
C1423       C  0.71727727  0.36211147  0.10894042    -0.13800
C1424       C  0.75025705  0.36358242  0.09254291     0.08300
C1425       C  0.78324064  0.36508705  0.10894323    -0.13800
C1426       C  0.78323225  0.36509749  0.14106939    -0.13800
C1427       C  0.75024089  0.36359067  0.15745874     0.08300
C1428       C  0.71726963  0.36210915  0.14104877    -0.13800
H1429       H  0.69141694  0.36089850  0.09695892     0.12300
H1430       H  0.80909377  0.36630017  0.09695318     0.12300
H1431       H  0.80908170  0.36631319  0.15306787     0.12300
H1432       H  0.69140440  0.36089894  0.15301959     0.12300
C1433       C  0.96696226  0.26458364  0.24933716    -0.13800
C1434       C  0.99999202  0.27948055  0.24999707     0.08300
C1435       C  0.53302294  0.26458619  0.25065452    -0.13800
C1436       C  0.53302338  0.23541350  0.25065204    -0.13800
C1437       C  0.99999374  0.22051639  0.25000046     0.08300
C1438       C  0.96696353  0.23541108  0.24934301    -0.13800
H1439       H  0.94106339  0.27546786  0.24880985     0.12300
H1440       H  0.55892124  0.27547250  0.25118051     0.12300
H1441       H  0.55892318  0.22452857  0.25117931     0.12300
H1442       H  0.94106405  0.22452424  0.24881659     0.12300
C1443       C  0.53294772  0.26458704  0.50193652    -0.13800
C1444       C  0.99998632  0.27947967  0.00001731     0.08300
C1445       C  0.96702571  0.26458423  0.99810066    -0.13800
C1446       C  0.96702740  0.23541123  0.99809581    -0.13800
C1447       C  0.49998927  0.22051793  0.00001597     0.08300
C1448       C  0.53294906  0.23541412  0.50194002    -0.13800
H1449       H  0.55878551  0.27547709  0.50350449     0.12300
H1450       H  0.94118760  0.27547181  0.99653325     0.12300
H1451       H  0.94118939  0.22452213  0.99652806     0.12300
H1452       H  0.55878766  0.22452749  0.50350757     0.12300
C1453       C  0.96727613  0.36142935  0.39106243    -0.13800
C1454       C  0.00019858  0.36352282  0.40746465     0.08300
C1455       C  0.53312713  0.36561576  0.39106906    -0.13800
C1456       C  0.53312253  0.36562016  0.35894493    -0.13800
C1457       C  0.00018993  0.36352519  0.34254857     0.08300
C1458       C  0.96727170  0.36142739  0.35895089    -0.13800
H1459       H  0.94146355  0.35973092  0.40304298     0.12300
H1460       H  0.55893353  0.36731412  0.40306215     0.12300
H1461       H  0.55892728  0.36731929  0.34695241     0.12300
H1462       H  0.94145720  0.35972977  0.34697154     0.12300
C1463       C  0.96686462  0.36574632  0.10894497    -0.13800
C1464       C  0.99977819  0.36352501  0.09254910     0.08300
C1465       C  0.53268659  0.36130096  0.10895004    -0.13800
C1466       C  0.53269167  0.36129908  0.14106117    -0.13800
C1467       C  0.99978974  0.36352748  0.15746417     0.08300
C1468       C  0.96687097  0.36575070  0.14106916    -0.13800
H1469       H  0.94107075  0.36754979  0.09695221     0.12300
H1470       H  0.55848571  0.35949665  0.09696868     0.12300
H1471       H  0.55849518  0.35949546  0.15304081     0.12300
H1472       H  0.94107939  0.36755495  0.15306293     0.12300
C1473       C  0.89144968  0.49999451  0.25047010    -0.13800
C1474       C  0.85853393  0.49999287  0.25046744    -0.15300
C1475       C  0.60853382  0.50000292  0.24954853    -0.13800
C1476       C  0.64144944  0.50000197  0.24954858    -0.15300
C1477       C  0.85853194  0.99999117  0.99984941    -0.13800
C1478       C  0.89144740  0.99999309  0.99985352    -0.15300
C1479       C  0.64144732  0.00000355  0.00016048    -0.13800
C1480       C  0.60853200  0.50000511  0.00015765    -0.15300
O1481       O  0.94818013  0.00007341  0.97493918    -0.72300
O1482       O  0.55189307  0.49992806  0.97509138    -0.72500
O1483       O  0.99992984  0.46036581  0.97501010    -0.72400
O1484       O  0.50013764  0.03963453  0.97501398    -0.72400
O1485       O  0.99983735  0.03963179  0.52500224    -0.72300
O1486       O  0.50005447  0.46036362  0.52499878    -0.72300
O1487       O  0.55179971  0.00007710  0.52507278    -0.72300
O1488       O  0.94808642  0.49991923  0.52492055    -0.72500
V1489       V  0.00003464  0.50000038  0.97598634     1.35200
V1490       V  0.49994503  0.49999795  0.52402588     1.35200
C1491       C  0.93062237  0.99999546  0.49990519     0.77000
C1492       C  0.56935720  0.50000381  0.50010665     0.77000
C1493       C  0.99999256  0.44697700  0.00000403     0.76900
C1494       C  0.49998674  0.05302044  0.00000881     0.76900
O1495       O  0.94798339  0.99992216  0.72525281    -0.72300
O1496       O  0.55169553  0.50007700  0.72478643    -0.72500
O1497       O  0.99994958  0.46036539  0.72501498    -0.72400
O1498       O  0.49973608  0.03963280  0.72501737    -0.72400
O1499       O  0.00024454  0.03963134  0.77500458    -0.72300
O1500       O  0.50003671  0.46036376  0.77500381    -0.72300
O1501       O  0.55200064  0.99992517  0.77476722    -0.72300
O1502       O  0.94828792  0.50007089  0.77523364    -0.72500
V1503       V  0.99984439  0.49999926  0.72599065     1.35200
V1504       V  0.50013934  0.49999778  0.77402966     1.35200
C1505       C  0.93062475  0.49999600  0.75031796     0.77000
C1506       C  0.56935897  0.50000191  0.74970186     0.77000
C1507       C  0.99999333  0.44697719  0.75000911     0.76900
C1508       C  0.99998929  0.05301907  0.75001120     0.76900
O1509       O  0.69818698  0.49998935  0.52507455    -0.72300
O1510       O  0.80189996  0.99999460  0.52491613    -0.72500
O1511       O  0.75004419  0.03962731  0.52500269    -0.72400
O1512       O  0.75004832  0.46035618  0.52499422    -0.72400
O1513       O  0.74991681  0.46036107  0.97500574    -0.72300
O1514       O  0.74994558  0.03963180  0.97501410    -0.72300
O1515       O  0.80179207  0.49998733  0.97493457    -0.72300
O1516       O  0.69807868  0.00000645  0.97509291    -0.72500
V1517       V  0.75004264  0.99999182  0.52402410     1.35200
V1518       V  0.74993595  0.99999647  0.97598465     1.35200
C1519       C  0.68062204  0.99999969  0.50010923     0.77000
C1520       C  0.81935693  0.99999064  0.49989999     0.77000
C1521       C  0.74999487  0.05301778  0.50000957     0.76900
C1522       C  0.74997937  0.44697036  0.49999858     0.76900
O1523       O  0.69798847  0.50000285  0.77476592    -0.72300
O1524       O  0.80170091  0.99998593  0.77522987    -0.72500
O1525       O  0.74986294  0.03962678  0.77500235    -0.72400
O1526       O  0.74983648  0.46036159  0.77500079    -0.72400
O1527       O  0.75013358  0.46036314  0.72501223    -0.72300
O1528       O  0.75013001  0.03962838  0.72501367    -0.72300
O1529       O  0.80199486  0.49999854  0.72524881    -0.72300
O1530       O  0.69828181  0.99999336  0.72478481    -0.72500
V1531       V  0.74984985  0.49999426  0.77402692     1.35200
V1532       V  0.75013289  0.49999575  0.72598760     1.35200
C1533       C  0.68062436  0.49999939  0.74970094     0.77000
C1534       C  0.81935881  0.49999209  0.75031401     0.77000
C1535       C  0.74999664  0.05301400  0.75000830     0.76900
C1536       C  0.74998165  0.44697594  0.75000626     0.76900
O1537       O  0.97036078  0.32390482  0.50014339    -0.72300
O1538       O  0.97031040  0.40316399  0.99970911    -0.72500
O1539       O  0.97048947  0.36330385  0.95632351    -0.72400
O1540       O  0.97023293  0.36376107  0.54358364    -0.72400
O1541       O  0.52948706  0.36330498  0.54369120    -0.72300
O1542       O  0.52974344  0.36375491  0.95643123    -0.72300
O1543       O  0.52967077  0.40316341  0.50029986    -0.72300
O1544       O  0.52961231  0.32390484  0.99987854    -0.72500
V1545       V  0.97150248  0.36353372  0.49994632     1.35200
V1546       V  0.52847415  0.36353285  0.50006856     1.35200
C1547       C  0.99998620  0.31035488  0.50001305     0.77000
C1548       C  0.99999129  0.41655427  0.50000368     0.77000
C1549       C  0.00015163  0.36352720  0.94145891     0.76900
C1550       C  0.99982485  0.36353078  0.55855562     0.76900
O1551       O  0.52961325  0.32390987  0.75037693    -0.72300
O1552       O  0.52966913  0.40316492  0.74952792    -0.72500
O1553       O  0.52973160  0.36393419  0.79359114    -0.72400
O1554       O  0.52949777  0.36313214  0.70633320    -0.72400
O1555       O  0.97025040  0.36393953  0.70642118    -0.72300
O1556       O  0.97048440  0.36312960  0.79367835    -0.72300
O1557       O  0.97031554  0.40316446  0.75048743    -0.72300
O1558       O  0.97036894  0.32390886  0.74962999    -0.72500
V1559       V  0.52847581  0.36353610  0.74995902     1.35200
V1560       V  0.97150694  0.36353591  0.75005273     1.35200
C1561       C  0.99999117  0.31035800  0.75000137     0.77000
C1562       C  0.99999270  0.41655523  0.75000828     0.77000
C1563       C  0.00014056  0.36352976  0.80855384     0.76900
C1564       C  0.99984101  0.36353355  0.69145839     0.76900
O1565       O  0.72034030  0.32389094  0.50023698    -0.72300
O1566       O  0.72029164  0.40315611  0.99998685    -0.72500
O1567       O  0.72016513  0.36345781  0.95644118    -0.72400
O1568       O  0.72051874  0.36359668  0.54370021    -0.72400
O1569       O  0.77977515  0.36346783  0.54356116    -0.72300
O1570       O  0.77942148  0.36358685  0.95630230    -0.72300
O1571       O  0.77965585  0.40315449  0.50000553    -0.72300
O1572       O  0.77959374  0.32389038  0.99977434    -0.72500
V1573       V  0.72148371  0.36352397  0.50008171     1.35200
V1574       V  0.77845656  0.36352318  0.49992052     1.35200
C1575       C  0.74996620  0.31034293  0.50000477     0.77000
C1576       C  0.74997513  0.41654631  0.49999596     0.77000
C1577       C  0.74974534  0.36353150  0.94145350     0.76900
C1578       C  0.75019501  0.36354710  0.55854893     0.76900
O1579       O  0.77959741  0.32391050  0.74975956    -0.72300
O1580       O  0.77965573  0.40316661  0.75038406    -0.72500
O1581       O  0.77944289  0.36324725  0.79369254    -0.72400
O1582       O  0.77975629  0.36383814  0.70643474    -0.72400
O1583       O  0.72050513  0.36325474  0.70631066    -0.72300
O1584       O  0.72019176  0.36382750  0.79356752    -0.72300
O1585       O  0.72029760  0.40316715  0.74962577    -0.72300
O1586       O  0.72034960  0.32390925  0.75023818    -0.72500
V1587       V  0.77845961  0.36353916  0.75006652     1.35200
V1588       V  0.72148937  0.36353854  0.74993642     1.35200
C1589       C  0.74997351  0.31035788  0.75000049     0.77000
C1590       C  0.74997775  0.41655629  0.75000557     0.77000
C1591       C  0.74977339  0.36354536  0.80854899     0.76900
C1592       C  0.75017397  0.36355978  0.69145369     0.76900
O1593       O  0.97036418  0.17609096  0.99990929    -0.72300
O1594       O  0.97030522  0.09683197  0.50001607    -0.72500
O1595       O  0.97028519  0.13648836  0.54360755    -0.72400
O1596       O  0.97043667  0.13643551  0.95634956    -0.72400
O1597       O  0.52969285  0.13648526  0.95641382    -0.72300
O1598       O  0.52954101  0.13643329  0.54367162    -0.72300
O1599       O  0.52966988  0.09683202  0.00000578    -0.72300
O1600       O  0.52961547  0.17609158  0.50011234    -0.72500
V1601       V  0.97150273  0.13646220  0.49997429     1.35200
V1602       V  0.52847498  0.13646176  0.50004715     1.35200
C1603       C  0.49998992  0.18964169  0.50001226     0.77000
C1604       C  0.49998705  0.08344204  0.50001044     0.77000
C1605       C  0.49989259  0.13645396  0.55855819     0.76900
C1606       C  0.50008524  0.13645182  0.94146314     0.76900
O1607       O  0.52961791  0.17608747  0.75014941    -0.72300
O1608       O  0.52967128  0.09682966  0.74983045    -0.72500
O1609       O  0.52955315  0.13660770  0.70635952    -0.72400
O1610       O  0.52968360  0.13630483  0.79361720    -0.72400
O1611       O  0.97042895  0.13661016  0.79366157    -0.72300
O1612       O  0.97029857  0.13630845  0.70640438    -0.72300
O1613       O  0.97030818  0.09682971  0.75019223    -0.72300
O1614       O  0.97036805  0.17608752  0.74986850    -0.72500
V1615       V  0.52847708  0.13645857  0.74998816     1.35200
V1616       V  0.97150541  0.13645938  0.75003297     1.35200
C1617       C  0.99999348  0.18963867  0.75000657     0.77000
C1618       C  0.99998935  0.08343996  0.75001151     0.77000
C1619       C  0.99990767  0.13645149  0.69146318     0.76900
C1620       C  0.00007424  0.13644924  0.80855819     0.76900
O1621       O  0.72034619  0.17609353  0.00024835    -0.72300
O1622       O  0.72030570  0.09682885  0.50000502    -0.72500
O1623       O  0.72054525  0.13638936  0.54371424    -0.72400
O1624       O  0.72015890  0.13652457  0.95645511    -0.72400
O1625       O  0.77941522  0.13639550  0.95630405    -0.72300
O1626       O  0.77980146  0.13653494  0.54356259    -0.72300
O1627       O  0.77967005  0.09683657  0.00001710    -0.72300
O1628       O  0.77959938  0.17610075  0.49976394    -0.72500
V1629       V  0.72149382  0.13646065  0.50009609     1.35200
V1630       V  0.77846659  0.13646815  0.49992184     1.35200
C1631       C  0.74997063  0.18964488  0.50000388     0.75800
C1632       C  0.74999027  0.08344173  0.50001148     0.77000
C1633       C  0.75022604  0.13645110  0.55855675     0.76900
C1634       C  0.74973472  0.13644979  0.94146137     0.76900
O1635       O  0.77960596  0.17608263  0.74977988    -0.72300
O1636       O  0.77967076  0.09682592  0.75039379    -0.72500
O1637       O  0.77978454  0.13616361  0.70644917    -0.72400
O1638       O  0.77943879  0.13673951  0.79370691    -0.72400
O1639       O  0.72018770  0.13615617  0.79356943    -0.72300
O1640       O  0.72053334  0.13673453  0.70631288    -0.72300
O1641       O  0.72031283  0.09682019  0.74962487    -0.72300
O1642       O  0.72035795  0.17607733  0.75024087    -0.72500
V1643       V  0.77847163  0.13645389  0.75008122     1.35200
V1644       V  0.72150143  0.13644835  0.74993812     1.35200
C1645       C  0.74998055  0.18963193  0.75001146     0.77000
C1646       C  0.74999348  0.08343364  0.75000899     0.77000
C1647       C  0.75020659  0.13643914  0.69146198     0.76900
C1648       C  0.74976482  0.13643879  0.80855709     0.76900
C1649       C  0.78265123  0.13784533  0.89107117    -0.13800
C1650       C  0.74966726  0.13642528  0.90746748     0.08300
C1651       C  0.71667977  0.13498039  0.89106586    -0.13800
C1652       C  0.71669042  0.13497028  0.85893898    -0.13800
C1653       C  0.74968860  0.13641782  0.84255188     0.08300
C1654       C  0.78266178  0.13784801  0.85896384    -0.13800
H1655       H  0.80851510  0.13901326  0.90305313     0.12300
H1656       H  0.69082230  0.13381253  0.90305541     0.12300
H1657       H  0.69083889  0.13380011  0.84693856     0.12300
H1658       H  0.80853177  0.13901338  0.84699550     0.12300
C1659       C  0.78328709  0.13501928  0.60895078    -0.13800
C1660       C  0.75029523  0.13642375  0.59255089     0.08300
C1661       C  0.71730981  0.13780015  0.60894931    -0.13800
C1662       C  0.71730230  0.13780254  0.64105667    -0.13800
C1663       C  0.75027999  0.13641564  0.65746693     0.08300
C1664       C  0.78327894  0.13500882  0.64107751    -0.13800
H1665       H  0.80914590  0.13388525  0.59696007     0.12300
H1666       H  0.69144207  0.13893387  0.59696886     0.12300
H1667       H  0.69143062  0.13893352  0.65302654     0.12300
H1668       H  0.80913488  0.13387227  0.65307665     0.12300
C1669       C  0.53313212  0.13555883  0.89107134    -0.13800
C1670       C  0.50011172  0.13642881  0.90746869     0.08300
C1671       C  0.96709247  0.13727695  0.89106728    -0.13800
C1672       C  0.96708859  0.13727928  0.85895443    -0.13800
C1673       C  0.00010326  0.13642708  0.84255296     0.08300
C1674       C  0.53312806  0.13555481  0.85895073    -0.13800
H1675       H  0.55902098  0.13485749  0.90305954     0.12300
H1676       H  0.94120132  0.13797640  0.90304755     0.12300
H1677       H  0.94119460  0.13797807  0.84697425     0.12300
H1678       H  0.55901434  0.13485302  0.84696319     0.12300
C1679       C  0.53289321  0.13710709  0.60895365    -0.13800
C1680       C  0.49986670  0.13643499  0.59255272     0.08300
C1681       C  0.96683981  0.13574462  0.60895085    -0.13800
C1682       C  0.96684511  0.13574063  0.64107126    -0.13800
C1683       C  0.99987755  0.13643334  0.65746845     0.08300
C1684       C  0.53289849  0.13710944  0.64106627    -0.13800
H1685       H  0.55879078  0.13766170  0.59697287     0.12300
H1686       H  0.94094446  0.13518846  0.59696363     0.12300
H1687       H  0.94095249  0.13518405  0.65305932     0.12300
H1688       H  0.55879893  0.13766342  0.65304557     0.12300
C1689       C  0.71694274  0.26457966  0.75055044    -0.13800
C1690       C  0.74997447  0.27947842  0.75000599     0.08300
C1691       C  0.78300783  0.26458338  0.74946867    -0.13800
C1692       C  0.78300970  0.23541014  0.74947237    -0.13800
C1693       C  0.74997804  0.22051130  0.75001314     0.08300
C1694       C  0.71694446  0.23540612  0.75055384    -0.13800
H1695       H  0.69104063  0.27546357  0.75098264     0.12300
H1696       H  0.80890912  0.27547015  0.74903482     0.12300
H1697       H  0.80891209  0.22452648  0.74904073     0.12300
H1698       H  0.69104373  0.22451919  0.75098828     0.12300
C1699       C  0.78257845  0.26458316  0.49554207    -0.13800
C1700       C  0.74996518  0.27947196  0.50000102     0.08300
C1701       C  0.71735158  0.26458015  0.00445512    -0.13800
C1702       C  0.71735221  0.23540430  0.00445428    -0.13800
C1703       C  0.74996688  0.22051582  0.49999900     0.08300
C1704       C  0.78257933  0.23540781  0.49554081    -0.13800
H1705       H  0.80811616  0.27548262  0.49191817     0.12300
H1706       H  0.69181351  0.27547745  0.00807912     0.12300
H1707       H  0.69181519  0.22450477  0.00807777     0.12300
H1708       H  0.80811762  0.22451101  0.49191645     0.12300
C1709       C  0.71669568  0.36498406  0.89105792    -0.13800
C1710       C  0.74968401  0.36355531  0.90745955     0.08300
C1711       C  0.78266995  0.36215278  0.89106344    -0.13800
C1712       C  0.78267929  0.36215121  0.85895514    -0.13800
C1713       C  0.74970417  0.36356482  0.84254386     0.08300
C1714       C  0.71670613  0.36499517  0.85893189    -0.13800
H1715       H  0.69083728  0.36613824  0.90304664     0.12300
H1716       H  0.80853381  0.36099862  0.90304559     0.12300
H1717       H  0.80854994  0.36100024  0.84698536     0.12300
H1718       H  0.69085269  0.36615236  0.84693252     0.12300
C1719       C  0.71727715  0.36211146  0.60894039    -0.13800
C1720       C  0.75025696  0.36358242  0.59254290     0.08300
C1721       C  0.78324036  0.36508702  0.60894332    -0.13800
C1722       C  0.78323200  0.36509748  0.64106934    -0.13800
C1723       C  0.75024074  0.36359066  0.65745874     0.08300
C1724       C  0.71726954  0.36210915  0.64104871    -0.13800
H1725       H  0.69141682  0.36089848  0.59695888     0.12300
H1726       H  0.80909383  0.36630015  0.59695320     0.12300
H1727       H  0.80908166  0.36631320  0.65306785     0.12300
H1728       H  0.69140413  0.36089895  0.65301958     0.12300
C1729       C  0.96696266  0.26458348  0.74933717    -0.13800
C1730       C  0.99999203  0.27948056  0.74999712     0.08300
C1731       C  0.53302245  0.26458604  0.75065451    -0.13800
C1732       C  0.53302351  0.23541344  0.75065205    -0.13800
C1733       C  0.99999370  0.22051638  0.75000046     0.08300
C1734       C  0.96696338  0.23541106  0.74934300    -0.13800
H1735       H  0.94106294  0.27546808  0.74880985     0.12300
H1736       H  0.55892165  0.27547273  0.75118055     0.12300
H1737       H  0.55892277  0.22452881  0.75117928     0.12300
H1738       H  0.94106416  0.22452443  0.74881658     0.12300
C1739       C  0.53294803  0.26458704  0.00193645    -0.13800
C1740       C  0.99998646  0.27947969  0.50001733     0.08300
C1741       C  0.96702600  0.26458420  0.49810069    -0.13800
C1742       C  0.96702742  0.23541117  0.49809582    -0.13800
C1743       C  0.49998900  0.22051797  0.50001603     0.08300
C1744       C  0.53294916  0.23541417  0.00193993    -0.13800
H1745       H  0.55878562  0.27547702  0.00350437     0.12300
H1746       H  0.94118765  0.27547190  0.49653320     0.12300
H1747       H  0.94118981  0.22452226  0.49652803     0.12300
H1748       H  0.55878822  0.22452734  0.00350743     0.12300
C1749       C  0.96727613  0.36142934  0.89106259    -0.13800
C1750       C  0.00019875  0.36352283  0.90746474     0.08300
C1751       C  0.53312724  0.36561575  0.89106911    -0.13800
C1752       C  0.53312254  0.36562017  0.85894494    -0.13800
C1753       C  0.00019014  0.36352520  0.84254866     0.08300
C1754       C  0.96727231  0.36142743  0.85895117    -0.13800
H1755       H  0.94146388  0.35973092  0.90304286     0.12300
H1756       H  0.55893361  0.36731413  0.90306217     0.12300
H1757       H  0.55892713  0.36731932  0.84695240     0.12300
H1758       H  0.94145708  0.35972978  0.84697147     0.12300
C1759       C  0.96686510  0.36574630  0.60894523    -0.13800
C1760       C  0.99977822  0.36352502  0.59254916     0.08300
C1761       C  0.53268714  0.36130093  0.60894990    -0.13800
C1762       C  0.53269244  0.36129904  0.64106137    -0.13800
C1763       C  0.99978976  0.36352748  0.65746425     0.08300
C1764       C  0.96687062  0.36575073  0.64106938    -0.13800
H1765       H  0.94107042  0.36754983  0.59695199     0.12300
H1766       H  0.55848588  0.35949666  0.59696852     0.12300
H1767       H  0.55849513  0.35949548  0.65304076     0.12300
H1768       H  0.94107972  0.36755493  0.65306272     0.12300
C1769       C  0.89144970  0.49999446  0.75047018    -0.13800
C1770       C  0.85853395  0.49999285  0.75046753    -0.15300
C1771       C  0.60853387  0.50000290  0.74954850    -0.13800
C1772       C  0.64144949  0.50000196  0.74954852    -0.15300
C1773       C  0.85853193  0.99999121  0.49984944    -0.13800
C1774       C  0.89144740  0.99999314  0.49985358    -0.15300
C1775       C  0.64144732  0.00000353  0.50016046    -0.13800
C1776       C  0.60853197  0.50000513  0.50015768    -0.15300
O1777       O  0.94818013  0.50007339  0.47493917    -0.72300
O1778       O  0.55189306  0.99992807  0.47509137    -0.72500
O1779       O  0.99992982  0.96036581  0.47501008    -0.72400
O1780       O  0.50013761  0.53963454  0.47501396    -0.72400
O1781       O  0.99983732  0.53963179  0.02500224    -0.72300
O1782       O  0.50005443  0.96036361  0.02499878    -0.72300
O1783       O  0.55179970  0.50007712  0.02507279    -0.72300
O1784       O  0.94808642  0.99991922  0.02492055    -0.72500
V1785       V  0.00003463  0.00000038  0.47598633     1.35200
V1786       V  0.49994508  0.99999793  0.02402588     1.35200
C1787       C  0.93062238  0.49999545  0.99990518     0.77000
C1788       C  0.56935723  0.00000378  0.00010664     0.77000
C1789       C  0.99999251  0.94697701  0.50000401     0.76900
C1790       C  0.49998662  0.55302046  0.50000880     0.76900
O1791       O  0.94798337  0.49992216  0.22525282    -0.72300
O1792       O  0.55169554  0.00007703  0.22478645    -0.72500
O1793       O  0.99994957  0.96036541  0.22501495    -0.72400
O1794       O  0.49973605  0.53963281  0.22501737    -0.72400
O1795       O  0.00024455  0.53963133  0.27500459    -0.72300
O1796       O  0.50003670  0.96036377  0.27500377    -0.72300
O1797       O  0.55200063  0.49992517  0.27476724    -0.72300
O1798       O  0.94828791  0.00007088  0.27523364    -0.72500
V1799       V  0.99984438  0.99999929  0.22599065     1.35200
V1800       V  0.50013933  0.99999779  0.27402966     1.35200
C1801       C  0.93062474  0.99999601  0.25031796     0.77000
C1802       C  0.56935896  0.00000193  0.24970188     0.77000
C1803       C  0.99999333  0.94697720  0.25000907     0.76900
C1804       C  0.99998928  0.55301907  0.25001122     0.76900
O1805       O  0.69818699  0.99998937  0.02507455    -0.72300
O1806       O  0.80189996  0.49999463  0.02491617    -0.72500
O1807       O  0.75004414  0.53962732  0.02500269    -0.72400
O1808       O  0.75004829  0.96035619  0.02499425    -0.72400
O1809       O  0.74991683  0.96036107  0.47500573    -0.72300
O1810       O  0.74994556  0.53963181  0.47501412    -0.72300
O1811       O  0.80179207  0.99998735  0.47493453    -0.72300
O1812       O  0.69807866  0.50000645  0.47509292    -0.72500
V1813       V  0.75004263  0.49999182  0.02402413     1.35200
V1814       V  0.74993593  0.49999647  0.47598464     1.35200
C1815       C  0.68062204  0.49999968  0.00010923     0.77000
C1816       C  0.81935694  0.49999065  0.99990003     0.77000
C1817       C  0.74999485  0.55301778  0.00000957     0.76900
C1818       C  0.74997934  0.94697037  0.99999860     0.76900
O1819       O  0.69798847  0.00000283  0.27476594    -0.72300
O1820       O  0.80170090  0.49998595  0.27522985    -0.72500
O1821       O  0.74986293  0.53962679  0.27500237    -0.72400
O1822       O  0.74983650  0.96036158  0.27500080    -0.72400
O1823       O  0.75013355  0.96036313  0.22501224    -0.72300
O1824       O  0.75012998  0.53962838  0.22501369    -0.72300
O1825       O  0.80199484  0.99999853  0.22524879    -0.72300
O1826       O  0.69828179  0.49999336  0.22478484    -0.72500
V1827       V  0.74984986  0.99999425  0.27402694     1.35200
V1828       V  0.75013288  0.99999574  0.22598761     1.35200
C1829       C  0.68062435  0.99999938  0.24970096     0.77000
C1830       C  0.81935880  0.99999209  0.25031399     0.77000
C1831       C  0.74999662  0.55301400  0.25000832     0.76900
C1832       C  0.74998165  0.94697593  0.25000627     0.76900
O1833       O  0.97036082  0.82390481  0.00014343    -0.72300
O1834       O  0.97031038  0.90316400  0.49970909    -0.72500
O1835       O  0.97048949  0.86330386  0.45632349    -0.72400
O1836       O  0.97023293  0.86376107  0.04358364    -0.72400
O1837       O  0.52948702  0.86330500  0.04369123    -0.72300
O1838       O  0.52974341  0.86375495  0.45643116    -0.72300
O1839       O  0.52967072  0.90316342  0.00029989    -0.72300
O1840       O  0.52961233  0.82390490  0.49987849    -0.72500
V1841       V  0.97150248  0.86353370  0.99994634     1.35200
V1842       V  0.52847412  0.86353287  0.00006862     1.35200
C1843       C  0.99998628  0.81035488  0.00001309     0.77000
C1844       C  0.99999128  0.91655427  0.00000371     0.77000
C1845       C  0.00015164  0.86352722  0.44145887     0.76900
C1846       C  0.99982480  0.86353080  0.05855564     0.76900
O1847       O  0.52961320  0.82390988  0.25037689    -0.72300
O1848       O  0.52966908  0.90316494  0.24952786    -0.72500
O1849       O  0.52973155  0.86393422  0.29359107    -0.72400
O1850       O  0.52949769  0.86313214  0.20633317    -0.72400
O1851       O  0.97025041  0.86393956  0.20642116    -0.72300
O1852       O  0.97048438  0.86312960  0.29367829    -0.72300
O1853       O  0.97031554  0.90316448  0.25048741    -0.72300
O1854       O  0.97036894  0.82390887  0.24962993    -0.72500
V1855       V  0.52847576  0.86353612  0.24995896     1.35200
V1856       V  0.97150694  0.86353592  0.25005269     1.35200
C1857       C  0.99999117  0.81035801  0.25000134     0.77000
C1858       C  0.99999269  0.91655524  0.25000822     0.77000
C1859       C  0.00014052  0.86352978  0.30855379     0.76900
C1860       C  0.99984104  0.86353356  0.19145835     0.76900
O1861       O  0.72034030  0.82389095  0.00023699    -0.72300
O1862       O  0.72029168  0.90315612  0.49998683    -0.72500
O1863       O  0.72016516  0.86345781  0.45644116    -0.72400
O1864       O  0.72051875  0.86359667  0.04370026    -0.72400
O1865       O  0.77977515  0.86346788  0.04356119    -0.72300
O1866       O  0.77942150  0.86358688  0.45630228    -0.72300
O1867       O  0.77965579  0.90315452  0.00000553    -0.72300
O1868       O  0.77959379  0.82389040  0.49977429    -0.72500
V1869       V  0.72148369  0.86352397  0.00008176     1.35200
V1870       V  0.77845654  0.86352323  0.99992051     1.35200
C1871       C  0.74996625  0.81034297  0.00000478     0.77000
C1872       C  0.74997506  0.91654632  0.99999601     0.77000
C1873       C  0.74974536  0.86353150  0.44145348     0.76900
C1874       C  0.75019502  0.86354712  0.05854895     0.76900
O1875       O  0.77959743  0.82391049  0.24975950    -0.72300
O1876       O  0.77965573  0.90316659  0.25038409    -0.72500
O1877       O  0.77944293  0.86324718  0.29369255    -0.72400
O1878       O  0.77975627  0.86383816  0.20643475    -0.72400
O1879       O  0.72050512  0.86325470  0.20631070    -0.72300
O1880       O  0.72019181  0.86382751  0.29356755    -0.72300
O1881       O  0.72029761  0.90316713  0.24962577    -0.72300
O1882       O  0.72034963  0.82390923  0.25023823    -0.72500
V1883       V  0.77845962  0.86353914  0.25006652     1.35200
V1884       V  0.72148939  0.86353852  0.24993645     1.35200
C1885       C  0.74997352  0.81035786  0.25000048     0.77000
C1886       C  0.74997775  0.91655627  0.25000557     0.77000
C1887       C  0.74977348  0.86354533  0.30854900     0.76900
C1888       C  0.75017393  0.86355977  0.19145374     0.76900
O1889       O  0.97036427  0.67609101  0.49990934    -0.72300
O1890       O  0.97030525  0.59683200  0.00001610    -0.72500
O1891       O  0.97028528  0.63648841  0.04360755    -0.72400
O1892       O  0.97043666  0.63643560  0.45634958    -0.72400
O1893       O  0.52969282  0.63648527  0.45641381    -0.72300
O1894       O  0.52954113  0.63643324  0.04367162    -0.72300
O1895       O  0.52966977  0.59683203  0.50000579    -0.72300
O1896       O  0.52961562  0.67609155  0.00011234    -0.72500
V1897       V  0.97150280  0.63646223  0.99997428     1.35200
V1898       V  0.52847508  0.63646172  0.00004715     1.35200
C1899       C  0.49999017  0.68964168  0.00001227     0.77000
C1900       C  0.49998706  0.58344204  0.00001043     0.77000
C1901       C  0.49989273  0.63645397  0.05855819     0.76900
C1902       C  0.50008521  0.63645186  0.44146313     0.76900
O1903       O  0.52961791  0.67608748  0.25014942    -0.72300
O1904       O  0.52967127  0.59682967  0.24983049    -0.72500
O1905       O  0.52955317  0.63660769  0.20635953    -0.72400
O1906       O  0.52968356  0.63630485  0.29361720    -0.72400
O1907       O  0.97042889  0.63661017  0.29366154    -0.72300
O1908       O  0.97029860  0.63630843  0.20640434    -0.72300
O1909       O  0.97030818  0.59682972  0.25019222    -0.72300
O1910       O  0.97036805  0.67608753  0.24986848    -0.72500
V1911       V  0.52847707  0.63645857  0.24998818     1.35200
V1912       V  0.97150539  0.63645938  0.25003294     1.35200
C1913       C  0.99999348  0.68963868  0.25000655     0.77000
C1914       C  0.99998934  0.58343996  0.25001154     0.77000
C1915       C  0.99990771  0.63645149  0.19146318     0.76900
C1916       C  0.00007414  0.63644926  0.30855818     0.76900
O1917       O  0.72034620  0.67609355  0.50024838    -0.72300
O1918       O  0.72030570  0.59682888  0.00000501    -0.72500
O1919       O  0.72054528  0.63638938  0.04371425    -0.72400
O1920       O  0.72015891  0.63652458  0.45645515    -0.72400
O1921       O  0.77941522  0.63639553  0.45630409    -0.72300
O1922       O  0.77980148  0.63653497  0.04356258    -0.72300
O1923       O  0.77967004  0.59683657  0.50001712    -0.72300
O1924       O  0.77959944  0.67610076  0.99976388    -0.72500
V1925       V  0.72149385  0.63646069  0.00009608     1.35200
V1926       V  0.77846661  0.63646816  0.99992182     1.35200
C1927       C  0.74997069  0.68964491  0.00000385     0.75800
C1928       C  0.74999027  0.58344174  0.00001146     0.77000
C1929       C  0.75022606  0.63645111  0.05855674     0.76900
C1930       C  0.74973468  0.63644979  0.44146143     0.76900
O1931       O  0.77960594  0.67608262  0.24977995    -0.72300
O1932       O  0.77967074  0.59682591  0.25039381    -0.72500
O1933       O  0.77978457  0.63616362  0.20644921    -0.72400
O1934       O  0.77943876  0.63673945  0.29370700    -0.72400
O1935       O  0.72018766  0.63615620  0.29356947    -0.72300
O1936       O  0.72053336  0.63673449  0.20631291    -0.72300
O1937       O  0.72031281  0.59682019  0.24962491    -0.72300
O1938       O  0.72035792  0.67607733  0.25024085    -0.72500
V1939       V  0.77847163  0.63645387  0.25008128     1.35200
V1940       V  0.72150143  0.63644834  0.24993815     1.35200
C1941       C  0.74998055  0.68963193  0.25001146     0.77000
C1942       C  0.74999346  0.58343364  0.25000903     0.77000
C1943       C  0.75020664  0.63643913  0.19146201     0.76900
C1944       C  0.74976480  0.63643877  0.30855715     0.76900
C1945       C  0.78265131  0.63784527  0.39107131    -0.13800
C1946       C  0.74966723  0.63642526  0.40746755     0.08300
C1947       C  0.71667935  0.63498040  0.39106613    -0.13800
C1948       C  0.71669055  0.63497031  0.35893915    -0.13800
C1949       C  0.74968854  0.63641780  0.34255197     0.08300
C1950       C  0.78266177  0.63784794  0.35896389    -0.13800
H1951       H  0.80851503  0.63901314  0.40305319     0.12300
H1952       H  0.69082261  0.63381264  0.40305532     0.12300
H1953       H  0.69083868  0.63380016  0.34693850     0.12300
H1954       H  0.80853159  0.63901322  0.34699559     0.12300
C1955       C  0.78328716  0.63501922  0.10895078    -0.13800
C1956       C  0.75029529  0.63642375  0.09255090     0.08300
C1957       C  0.71730976  0.63780018  0.10894926    -0.13800
C1958       C  0.71730232  0.63780256  0.14105669    -0.13800
C1959       C  0.75028003  0.63641562  0.15746694     0.08300
C1960       C  0.78327912  0.63500875  0.14107760    -0.13800
H1961       H  0.80914594  0.63388514  0.09696005     0.12300
H1962       H  0.69144227  0.63893396  0.09696889     0.12300
H1963       H  0.69143070  0.63893357  0.15302655     0.12300
H1964       H  0.80913476  0.63387213  0.15307664     0.12300
C1965       C  0.53313189  0.63555886  0.39107127    -0.13800
C1966       C  0.50011160  0.63642885  0.40746869     0.08300
C1967       C  0.96709253  0.63727697  0.39106717    -0.13800
C1968       C  0.96708837  0.63727930  0.35895437    -0.13800
C1969       C  0.00010314  0.63642710  0.34255293     0.08300
C1970       C  0.53312776  0.63555484  0.35895082    -0.13800
H1971       H  0.55902095  0.63485752  0.40305946     0.12300
H1972       H  0.94120098  0.63797643  0.40304766     0.12300
H1973       H  0.94119455  0.63797808  0.34697429     0.12300
H1974       H  0.55901445  0.63485303  0.34696319     0.12300
C1975       C  0.53289349  0.63710709  0.10895357    -0.13800
C1976       C  0.49986683  0.63643499  0.09255272     0.08300
C1977       C  0.96683990  0.63574462  0.10895083    -0.13800
C1978       C  0.96684515  0.63574063  0.14107127    -0.13800
C1979       C  0.99987764  0.63643332  0.15746843     0.08300
C1980       C  0.53289861  0.63710944  0.14106629    -0.13800
H1981       H  0.55879073  0.63766170  0.09697291     0.12300
H1982       H  0.94094457  0.63518847  0.09696361     0.12300
H1983       H  0.94095267  0.63518404  0.15305927     0.12300
H1984       H  0.55879900  0.63766340  0.15304563     0.12300
C1985       C  0.71694273  0.76457967  0.25055038    -0.13800
C1986       C  0.74997449  0.77947841  0.25000594     0.08300
C1987       C  0.78300781  0.76458335  0.24946861    -0.13800
C1988       C  0.78300974  0.73541013  0.24947231    -0.13800
C1989       C  0.74997804  0.72051130  0.25001312     0.08300
C1990       C  0.71694456  0.73540615  0.25055378    -0.13800
H1991       H  0.69104068  0.77546352  0.25098253     0.12300
H1992       H  0.80890920  0.77547016  0.24903472     0.12300
H1993       H  0.80891207  0.72452649  0.24904065     0.12300
H1994       H  0.69104364  0.72451915  0.25098818     0.12300
C1995       C  0.78257879  0.76458332  0.99554194    -0.13800
C1996       C  0.74996526  0.77947199  0.00000103     0.08300
C1997       C  0.71735164  0.76458016  0.50445498    -0.13800
C1998       C  0.71735230  0.73540436  0.50445415    -0.13800
C1999       C  0.74996700  0.72051587  0.99999897     0.08300
C2000       C  0.78257937  0.73540787  0.99554071    -0.13800
H2001       H  0.80811597  0.77548257  0.99191795     0.12300
H2002       H  0.69181350  0.77547747  0.50807886     0.12300
H2003       H  0.69181507  0.72450479  0.50807753     0.12300
H2004       H  0.80811772  0.72451097  0.99191616     0.12300
C2005       C  0.71669574  0.86498408  0.39105793    -0.13800
C2006       C  0.74968409  0.86355530  0.40745953     0.08300
C2007       C  0.78266997  0.86215272  0.39106340    -0.13800
C2008       C  0.78267952  0.86215112  0.35895507    -0.13800
C2009       C  0.74970426  0.86356479  0.34254387     0.08300
C2010       C  0.71670637  0.86499518  0.35893196    -0.13800
H2011       H  0.69083745  0.86613832  0.40304653     0.12300
H2012       H  0.80853400  0.86099849  0.40304569     0.12300
H2013       H  0.80854986  0.86100008  0.34698539     0.12300
H2014       H  0.69085262  0.86615241  0.34693249     0.12300
C2015       C  0.71727708  0.86211146  0.10894037    -0.13800
C2016       C  0.75025697  0.86358244  0.09254294     0.08300
C2017       C  0.78324043  0.86508704  0.10894333    -0.13800
C2018       C  0.78323216  0.86509750  0.14106949    -0.13800
C2019       C  0.75024070  0.86359066  0.15745877     0.08300
C2020       C  0.71726933  0.86210914  0.14104883    -0.13800
H2021       H  0.69141694  0.86089850  0.09695887     0.12300
H2022       H  0.80909372  0.86630017  0.09695324     0.12300
H2023       H  0.80908143  0.86631320  0.15306787     0.12300
H2024       H  0.69140429  0.86089895  0.15301956     0.12300
C2025       C  0.96696266  0.76458349  0.24933717    -0.13800
C2026       C  0.99999203  0.77948056  0.24999708     0.08300
C2027       C  0.53302242  0.76458605  0.25065451    -0.13800
C2028       C  0.53302351  0.73541345  0.25065205    -0.13800
C2029       C  0.99999370  0.72051639  0.25000047     0.08300
C2030       C  0.96696338  0.73541107  0.24934300    -0.13800
H2031       H  0.94106295  0.77546809  0.24880986     0.12300
H2032       H  0.55892163  0.77547276  0.25118053     0.12300
H2033       H  0.55892277  0.72452883  0.25117929     0.12300
H2034       H  0.94106416  0.72452443  0.24881659     0.12300
C2035       C  0.53294838  0.76458717  0.50193656    -0.13800
C2036       C  0.99998659  0.77947970  0.00001736     0.08300
C2037       C  0.96702633  0.76458411  0.99810069    -0.13800
C2038       C  0.96702775  0.73541124  0.99809582    -0.13800
C2039       C  0.49998927  0.72051795  0.00001602     0.08300
C2040       C  0.53294925  0.73541422  0.50194003    -0.13800
H2041       H  0.55878561  0.77547701  0.50350450     0.12300
H2042       H  0.94118760  0.77547185  0.99653320     0.12300
H2043       H  0.94118983  0.72452228  0.99652801     0.12300
H2044       H  0.55878837  0.72452730  0.50350760     0.12300
C2045       C  0.96727628  0.86142936  0.39106243    -0.13800
C2046       C  0.00019871  0.86352284  0.40746468     0.08300
C2047       C  0.53312675  0.86561573  0.39106884    -0.13800
C2048       C  0.53312249  0.86562017  0.35894483    -0.13800
C2049       C  0.00019010  0.86352522  0.34254859     0.08300
C2050       C  0.96727212  0.86142742  0.35895103    -0.13800
H2051       H  0.94146365  0.85973094  0.40304289     0.12300
H2052       H  0.55893379  0.86731416  0.40306218     0.12300
H2053       H  0.55892700  0.86731930  0.34695247     0.12300
H2054       H  0.94145715  0.85972979  0.34697147     0.12300
C2055       C  0.96686492  0.86574633  0.10894516    -0.13800
C2056       C  0.99977819  0.86352503  0.09254914     0.08300
C2057       C  0.53268687  0.86130096  0.10894998    -0.13800
C2058       C  0.53269221  0.86129907  0.14106131    -0.13800
C2059       C  0.99978974  0.86352750  0.15746422     0.08300
C2060       C  0.96687093  0.86575073  0.14106920    -0.13800
H2061       H  0.94107049  0.86754986  0.09695213     0.12300
H2062       H  0.55848590  0.85949667  0.09696854     0.12300
H2063       H  0.55849508  0.85949550  0.15304070     0.12300
H2064       H  0.94107933  0.86755498  0.15306289     0.12300
C2065       C  0.89144968  0.99999447  0.25047016    -0.13800
C2066       C  0.85853394  0.99999286  0.25046750    -0.15300
C2067       C  0.60853386  0.00000292  0.24954852    -0.13800
C2068       C  0.64144948  0.00000196  0.24954854    -0.15300
C2069       C  0.85853194  0.49999122  0.99984947    -0.13800
C2070       C  0.89144741  0.49999314  0.99985357    -0.15300
C2071       C  0.64144732  0.50000353  0.00016045    -0.13800
C2072       C  0.60853199  0.00000510  0.00015765    -0.15300
O2073       O  0.94818013  0.50007340  0.97493920    -0.72300
O2074       O  0.55189307  0.99992807  0.97509138    -0.72500
O2075       O  0.99992980  0.96036581  0.97501009    -0.72400
O2076       O  0.50013768  0.53963453  0.97501397    -0.72400
O2077       O  0.99983727  0.53963180  0.52500223    -0.72300
O2078       O  0.50005443  0.96036361  0.52499876    -0.72300
O2079       O  0.55179967  0.50007714  0.52507279    -0.72300
O2080       O  0.94808644  0.99991926  0.52492058    -0.72500
V2081       V  0.00003463  0.00000038  0.97598633     1.35200
V2082       V  0.49994508  0.99999794  0.52402587     1.35200
C2083       C  0.93062237  0.49999543  0.49990516     0.77000
C2084       C  0.56935722  0.00000379  0.50010663     0.77000
C2085       C  0.99999248  0.94697700  0.00000402     0.76900
C2086       C  0.49998670  0.55302045  0.00000881     0.76900
O2087       O  0.94798338  0.49992213  0.72525285    -0.72300
O2088       O  0.55169549  0.00007699  0.72478644    -0.72500
O2089       O  0.99994959  0.96036541  0.72501496    -0.72400
O2090       O  0.49973609  0.53963278  0.72501736    -0.72400
O2091       O  0.00024456  0.53963134  0.77500458    -0.72300
O2092       O  0.50003667  0.96036377  0.77500381    -0.72300
O2093       O  0.55200069  0.49992513  0.77476722    -0.72300
O2094       O  0.94828791  0.00007092  0.77523360    -0.72500
V2095       V  0.99984440  0.99999928  0.72599064     1.35200
V2096       V  0.50013929  0.99999779  0.77402967     1.35200
C2097       C  0.93062476  0.99999603  0.75031791     0.77000
C2098       C  0.56935892  0.00000192  0.74970187     0.77000
C2099       C  0.99999329  0.94697720  0.75000908     0.76900
C2100       C  0.99998928  0.55301906  0.75001119     0.76900
O2101       O  0.69818697  0.99998935  0.52507453    -0.72300
O2102       O  0.80189997  0.49999459  0.52491611    -0.72500
O2103       O  0.75004422  0.53962730  0.52500268    -0.72400
O2104       O  0.75004832  0.96035618  0.52499422    -0.72400
O2105       O  0.74991672  0.96036107  0.97500575    -0.72300
O2106       O  0.74994554  0.53963181  0.97501412    -0.72300
O2107       O  0.80179206  0.99998728  0.97493454    -0.72300
O2108       O  0.69807869  0.50000641  0.97509290    -0.72500
V2109       V  0.75004265  0.49999181  0.52402410     1.35200
V2110       V  0.74993596  0.49999648  0.97598466     1.35200
C2111       C  0.68062203  0.49999972  0.50010926     0.77000
C2112       C  0.81935693  0.49999060  0.49989995     0.77000
C2113       C  0.74999492  0.55301777  0.50000956     0.76900
C2114       C  0.74997947  0.94697036  0.49999858     0.76900
O2115       O  0.69798846  0.00000288  0.77476593    -0.72300
O2116       O  0.80170090  0.49998598  0.77522990    -0.72500
O2117       O  0.74986290  0.53962679  0.77500236    -0.72400
O2118       O  0.74983644  0.96036158  0.77500077    -0.72400
O2119       O  0.75013356  0.96036313  0.72501222    -0.72300
O2120       O  0.75013009  0.53962838  0.72501368    -0.72300
O2121       O  0.80199482  0.99999857  0.72524878    -0.72300
O2122       O  0.69828185  0.49999340  0.72478480    -0.72500
V2123       V  0.74984986  0.99999425  0.77402691     1.35200
V2124       V  0.75013285  0.99999574  0.72598759     1.35200
C2125       C  0.68062433  0.99999939  0.74970096     0.77000
C2126       C  0.81935880  0.99999209  0.75031397     0.77000
C2127       C  0.74999669  0.55301400  0.75000831     0.76900
C2128       C  0.74998161  0.94697592  0.75000624     0.76900
O2129       O  0.97036082  0.82390483  0.50014339    -0.72300
O2130       O  0.97031035  0.90316398  0.99970911    -0.72500
O2131       O  0.97048945  0.86330383  0.95632353    -0.72400
O2132       O  0.97023299  0.86376109  0.54358365    -0.72400
O2133       O  0.52948696  0.86330504  0.54369123    -0.72300
O2134       O  0.52974335  0.86375492  0.95643122    -0.72300
O2135       O  0.52967069  0.90316345  0.50029986    -0.72300
O2136       O  0.52961227  0.82390487  0.99987852    -0.72500
V2137       V  0.97150249  0.86353373  0.49994631     1.35200
V2138       V  0.52847414  0.86353290  0.50006858     1.35200
C2139       C  0.99998616  0.81035489  0.50001305     0.77000
C2140       C  0.99999132  0.91655427  0.50000368     0.77000
C2141       C  0.00015161  0.86352721  0.94145891     0.76900
C2142       C  0.99982485  0.86353080  0.55855561     0.76900
O2143       O  0.52961316  0.82390984  0.75037689    -0.72300
O2144       O  0.52966899  0.90316493  0.74952788    -0.72500
O2145       O  0.52973154  0.86393420  0.79359114    -0.72400
O2146       O  0.52949759  0.86313215  0.70633315    -0.72400
O2147       O  0.97025040  0.86393953  0.70642115    -0.72300
O2148       O  0.97048430  0.86312961  0.79367831    -0.72300
O2149       O  0.97031551  0.90316448  0.75048737    -0.72300
O2150       O  0.97036890  0.82390887  0.74962994    -0.72500
V2151       V  0.52847571  0.86353610  0.74995899     1.35200
V2152       V  0.97150690  0.86353592  0.75005268     1.35200
C2153       C  0.99999111  0.81035802  0.75000135     0.77000
C2154       C  0.99999266  0.91655524  0.75000824     0.77000
C2155       C  0.00014039  0.86352978  0.80855382     0.76900
C2156       C  0.99984112  0.86353355  0.69145837     0.76900
O2157       O  0.72034036  0.82389096  0.50023699    -0.72300
O2158       O  0.72029151  0.90315611  0.99998689    -0.72500
O2159       O  0.72016501  0.86345783  0.95644122    -0.72400
O2160       O  0.72051884  0.86359671  0.54370022    -0.72400
O2161       O  0.77977524  0.86346785  0.54356113    -0.72300
O2162       O  0.77942136  0.86358692  0.95630223    -0.72300
O2163       O  0.77965596  0.90315449  0.50000551    -0.72300
O2164       O  0.77959374  0.82389046  0.99977429    -0.72500
V2165       V  0.72148380  0.86352398  0.50008173     1.35200
V2166       V  0.77845665  0.86352318  0.49992051     1.35200
C2167       C  0.74996624  0.81034293  0.50000478     0.77000
C2168       C  0.74997524  0.91654632  0.49999596     0.77000
C2169       C  0.74974515  0.86353154  0.94145348     0.76900
C2170       C  0.75019519  0.86354713  0.55854891     0.76900
O2171       O  0.77959743  0.82391049  0.74975962    -0.72300
O2172       O  0.77965570  0.90316660  0.75038409    -0.72500
O2173       O  0.77944273  0.86324724  0.79369258    -0.72400
O2174       O  0.77975645  0.86383811  0.70643479    -0.72400
O2175       O  0.72050528  0.86325473  0.70631054    -0.72300
O2176       O  0.72019160  0.86382746  0.79356742    -0.72300
O2177       O  0.72029757  0.90316711  0.74962569    -0.72300
O2178       O  0.72034962  0.82390922  0.75023807    -0.72500
V2179       V  0.77845959  0.86353915  0.75006657     1.35200
V2180       V  0.72148936  0.86353851  0.74993631     1.35200
C2181       C  0.74997356  0.81035785  0.75000047     0.77000
C2182       C  0.74997771  0.91655627  0.75000555     0.77000
C2183       C  0.74977312  0.86354535  0.80854896     0.76900
C2184       C  0.75017418  0.86355976  0.69145366     0.76900
O2185       O  0.97036442  0.67609102  0.99990932    -0.72300
O2186       O  0.97030510  0.59683201  0.50001607    -0.72500
O2187       O  0.97028511  0.63648840  0.54360752    -0.72400
O2188       O  0.97043681  0.63643556  0.95634955    -0.72400
O2189       O  0.52969294  0.63648527  0.95641388    -0.72300
O2190       O  0.52954124  0.63643326  0.54367152    -0.72300
O2191       O  0.52966982  0.59683202  0.00000585    -0.72300
O2192       O  0.52961568  0.67609152  0.50011227    -0.72500
V2193       V  0.97150266  0.63646224  0.49997428     1.35200
V2194       V  0.52847505  0.63646172  0.50004706     1.35200
C2195       C  0.49999018  0.68964171  0.50001226     0.77000
C2196       C  0.49998701  0.58344205  0.50001043     0.77000
C2197       C  0.49989292  0.63645398  0.55855818     0.76900
C2198       C  0.50008546  0.63645183  0.94146316     0.76900
O2199       O  0.52961795  0.67608744  0.75014943    -0.72300
O2200       O  0.52967139  0.59682965  0.74983048    -0.72500
O2201       O  0.52955327  0.63660768  0.70635956    -0.72400
O2202       O  0.52968365  0.63630482  0.79361720    -0.72400
O2203       O  0.97042898  0.63661016  0.79366156    -0.72300
O2204       O  0.97029853  0.63630843  0.70640437    -0.72300
O2205       O  0.97030816  0.59682970  0.75019222    -0.72300
O2206       O  0.97036806  0.67608752  0.74986848    -0.72500
V2207       V  0.52847714  0.63645855  0.74998819     1.35200
V2208       V  0.97150540  0.63645937  0.75003296     1.35200
C2209       C  0.99999347  0.68963868  0.75000654     0.77000
C2210       C  0.99998932  0.58343995  0.75001149     0.77000
C2211       C  0.99990758  0.63645149  0.69146315     0.76900
C2212       C  0.00007425  0.63644924  0.80855814     0.76900
O2213       O  0.72034628  0.67609361  0.00024835    -0.72300
O2214       O  0.72030575  0.59682884  0.50000505    -0.72500
O2215       O  0.72054532  0.63638934  0.54371429    -0.72400
O2216       O  0.72015897  0.63652462  0.95645514    -0.72400
O2217       O  0.77941529  0.63639549  0.95630411    -0.72300
O2218       O  0.77980152  0.63653495  0.54356254    -0.72300
O2219       O  0.77966999  0.59683657  0.00001716    -0.72300
O2220       O  0.77959937  0.67610076  0.49976389    -0.72500
V2221       V  0.72149381  0.63646064  0.50009611     1.35200
V2222       V  0.77846658  0.63646817  0.49992179     1.35200
C2223       C  0.74997058  0.68964488  0.50000387     0.75800
C2224       C  0.74999034  0.58344173  0.50001147     0.77000
C2225       C  0.75022611  0.63645108  0.55855672     0.76900
C2226       C  0.74973484  0.63644979  0.94146142     0.76900
O2227       O  0.77960604  0.67608260  0.74977989    -0.72300
O2228       O  0.77967083  0.59682590  0.75039381    -0.72500
O2229       O  0.77978464  0.63616357  0.70644917    -0.72400
O2230       O  0.77943887  0.63673948  0.79370694    -0.72400
O2231       O  0.72018776  0.63615617  0.79356947    -0.72300
O2232       O  0.72053343  0.63673451  0.70631287    -0.72300
O2233       O  0.72031289  0.59682020  0.74962489    -0.72300
O2234       O  0.72035801  0.67607733  0.75024087    -0.72500
V2235       V  0.77847172  0.63645386  0.75008124     1.35200
V2236       V  0.72150150  0.63644834  0.74993813     1.35200
C2237       C  0.74998064  0.68963192  0.75001147     0.77000
C2238       C  0.74999354  0.58343364  0.75000901     0.77000
C2239       C  0.75020677  0.63643911  0.69146199     0.76900
C2240       C  0.74976487  0.63643877  0.80855714     0.76900
C2241       C  0.78265168  0.63784531  0.89107138    -0.13800
C2242       C  0.74966737  0.63642526  0.90746756     0.08300
C2243       C  0.71667990  0.63498036  0.89106593    -0.13800
C2244       C  0.71669069  0.63497025  0.85893914    -0.13800
C2245       C  0.74968870  0.63641778  0.84255195     0.08300
C2246       C  0.78266150  0.63784796  0.85896408    -0.13800
H2247       H  0.80851498  0.63901320  0.90305298     0.12300
H2248       H  0.69082228  0.63381246  0.90305548     0.12300
H2249       H  0.69083895  0.63380005  0.84693863     0.12300
H2250       H  0.80853220  0.63901335  0.84699532     0.12300
C2251       C  0.78328738  0.63501924  0.60895069    -0.13800
C2252       C  0.75029541  0.63642371  0.59255088     0.08300
C2253       C  0.71730960  0.63780012  0.60894912    -0.13800
C2254       C  0.71730264  0.63780248  0.64105659    -0.13800
C2255       C  0.75028015  0.63641559  0.65746691     0.08300
C2256       C  0.78327942  0.63500876  0.64107766    -0.13800
H2257       H  0.80914603  0.63388522  0.59695997     0.12300
H2258       H  0.69144265  0.63893381  0.59696907     0.12300
H2259       H  0.69143065  0.63893342  0.65302666     0.12300
H2260       H  0.80913467  0.63387220  0.65307655     0.12300
C2261       C  0.53313271  0.63555878  0.89107151    -0.13800
C2262       C  0.50011191  0.63642882  0.90746872     0.08300
C2263       C  0.96709268  0.63727699  0.89106718    -0.13800
C2264       C  0.96708825  0.63727933  0.85895421    -0.13800
C2265       C  0.00010329  0.63642708  0.84255291     0.08300
C2266       C  0.53312774  0.63555477  0.85895092    -0.13800
H2267       H  0.55902077  0.63485738  0.90305923     0.12300
H2268       H  0.94120127  0.63797648  0.90304767     0.12300
H2269       H  0.94119498  0.63797815  0.84697441     0.12300
H2270       H  0.55901494  0.63485288  0.84696283     0.12300
C2271       C  0.53289384  0.63710711  0.60895357    -0.13800
C2272       C  0.49986715  0.63643501  0.59255271     0.08300
C2273       C  0.96683965  0.63574463  0.60895084    -0.13800
C2274       C  0.96684494  0.63574064  0.64107125    -0.13800
C2275       C  0.99987743  0.63643334  0.65746843     0.08300
C2276       C  0.53289907  0.63710946  0.64106639    -0.13800
H2277       H  0.55879111  0.63766173  0.59697286     0.12300
H2278       H  0.94094425  0.63518848  0.59696358     0.12300
H2279       H  0.94095241  0.63518405  0.65305932     0.12300
H2280       H  0.55879909  0.63766342  0.65304565     0.12300
C2281       C  0.71694307  0.76457952  0.75055043    -0.13800
C2282       C  0.74997456  0.77947839  0.75000598     0.08300
C2283       C  0.78300791  0.76458334  0.74946867    -0.13800
C2284       C  0.78300980  0.73541015  0.74947237    -0.13800
C2285       C  0.74997817  0.72051127  0.75001315     0.08300
C2286       C  0.71694462  0.73540611  0.75055384    -0.13800
H2287       H  0.69104051  0.77546356  0.75098265     0.12300
H2288       H  0.80890925  0.77547016  0.74903482     0.12300
H2289       H  0.80891231  0.72452644  0.74904073     0.12300
H2290       H  0.69104379  0.72451920  0.75098828     0.12300
C2291       C  0.78257836  0.76458312  0.49554209    -0.13800
C2292       C  0.74996514  0.77947195  0.50000103     0.08300
C2293       C  0.71735170  0.76458024  0.00445509    -0.13800
C2294       C  0.71735270  0.73540447  0.00445421    -0.13800
C2295       C  0.74996680  0.72051582  0.49999900     0.08300
C2296       C  0.78257931  0.73540776  0.49554081    -0.13800
H2297       H  0.80811610  0.77548257  0.49191819     0.12300
H2298       H  0.69181376  0.77547738  0.00807908     0.12300
H2299       H  0.69181524  0.72450477  0.00807777     0.12300
H2300       H  0.80811750  0.72451102  0.49191643     0.12300
C2301       C  0.71669538  0.86498412  0.89105788    -0.13800
C2302       C  0.74968367  0.86355535  0.90745952     0.08300
C2303       C  0.78266936  0.86215277  0.89106327    -0.13800
C2304       C  0.78267874  0.86215117  0.85895516    -0.13800
C2305       C  0.74970377  0.86356481  0.84254382     0.08300
C2306       C  0.71670551  0.86499523  0.85893177    -0.13800
H2307       H  0.69083684  0.86613838  0.90304678     0.12300
H2308       H  0.80853359  0.86099853  0.90304549     0.12300
H2309       H  0.80854966  0.86100010  0.84698534     0.12300
H2310       H  0.69085242  0.86615243  0.84693255     0.12300
C2311       C  0.71727753  0.86211150  0.60894042    -0.13800
C2312       C  0.75025721  0.86358246  0.59254286     0.08300
C2313       C  0.78324100  0.86508707  0.60894310    -0.13800
C2314       C  0.78323217  0.86509749  0.64106921    -0.13800
C2315       C  0.75024107  0.86359066  0.65745870     0.08300
C2316       C  0.71726994  0.86210917  0.64104864    -0.13800
H2317       H  0.69141694  0.86089852  0.59695889     0.12300
H2318       H  0.80909382  0.86630020  0.59695325     0.12300
H2319       H  0.80908213  0.86631323  0.65306797     0.12300
H2320       H  0.69140448  0.86089895  0.65301952     0.12300
C2321       C  0.96696237  0.76458359  0.74933717    -0.13800
C2322       C  0.99999196  0.77948057  0.74999711     0.08300
C2323       C  0.53302251  0.76458603  0.75065451    -0.13800
C2324       C  0.53302339  0.73541344  0.75065205    -0.13800
C2325       C  0.99999364  0.72051640  0.75000044     0.08300
C2326       C  0.96696333  0.73541108  0.74934300    -0.13800
H2327       H  0.94106306  0.77546804  0.74880987     0.12300
H2328       H  0.55892143  0.77547262  0.75118055     0.12300
H2329       H  0.55892298  0.72452868  0.75117929     0.12300
H2330       H  0.94106411  0.72452437  0.74881656     0.12300
C2331       C  0.53294779  0.76458697  0.00193653    -0.13800
C2332       C  0.99998650  0.77947973  0.50001733     0.08300
C2333       C  0.96702573  0.76458434  0.49810067    -0.13800
C2334       C  0.96702807  0.73541148  0.49809586    -0.13800
C2335       C  0.49998941  0.72051797  0.50001605     0.08300
C2336       C  0.53294963  0.73541399  0.00194005    -0.13800
H2337       H  0.55878593  0.77547728  0.00350453     0.12300
H2338       H  0.94118797  0.77547163  0.49653321     0.12300
H2339       H  0.94118915  0.72452202  0.49652799     0.12300
H2340       H  0.55878769  0.72452761  0.00350755     0.12300
C2341       C  0.96727614  0.86142936  0.89106255    -0.13800
C2342       C  0.00019865  0.86352284  0.90746472     0.08300
C2343       C  0.53312713  0.86561578  0.89106918    -0.13800
C2344       C  0.53312249  0.86562018  0.85894497    -0.13800
C2345       C  0.00018996  0.86352522  0.84254864     0.08300
C2346       C  0.96727184  0.86142742  0.85895102    -0.13800
H2347       H  0.94146367  0.85973097  0.90304304     0.12300
H2348       H  0.55893346  0.86731417  0.90306226     0.12300
H2349       H  0.55892696  0.86731930  0.84695252     0.12300
H2350       H  0.94145720  0.85972982  0.84697163     0.12300
C2351       C  0.96686491  0.86574634  0.60894510    -0.13800
C2352       C  0.99977831  0.86352503  0.59254913     0.08300
C2353       C  0.53268667  0.86130099  0.60894997    -0.13800
C2354       C  0.53269189  0.86129909  0.64106126    -0.13800
C2355       C  0.99978986  0.86352750  0.65746422     0.08300
C2356       C  0.96687118  0.86575071  0.64106916    -0.13800
H2357       H  0.94107082  0.86754984  0.59695226     0.12300
H2358       H  0.55848570  0.85949673  0.59696857     0.12300
H2359       H  0.55849491  0.85949551  0.65304074     0.12300
H2360       H  0.94107934  0.86755496  0.65306298     0.12300
C2361       C  0.89144969  0.99999448  0.75047011    -0.13800
C2362       C  0.85853395  0.99999286  0.75046746    -0.15300
C2363       C  0.60853383  0.00000292  0.74954851    -0.13800
C2364       C  0.64144945  0.00000196  0.74954855    -0.15300
C2365       C  0.85853193  0.49999116  0.49984939    -0.13800
C2366       C  0.89144740  0.49999310  0.49985353    -0.15300
C2367       C  0.64144730  0.50000356  0.50016051    -0.13800
C2368       C  0.60853200  0.00000510  0.50015765    -0.15300
loop_ 
_geom_bond_atom_site_label_1 
_geom_bond_atom_site_label_2 
_geom_bond_distance 
_geom_bond_site_symmetry_2 
_ccdc_geom_bond_type 
O1          V601   1.900       .  S
O1          C307   1.263   1_545  A
O2         V1193   1.900       .  S
O2          C308   1.263       .  A
O3            V9   1.899       .  S
O3           C13   1.263       .  A
O4         V1785   1.899       .  S
O4           C14   1.263   1_455  A
O5         V1786   1.899   1_545  S
O5         C1494   1.263       .  A
O6           V10   1.899   1_455  S
O6         C1493   1.263   1_455  A
O7          V602   1.900   1_445  S
O7          C604   1.263       .  A
O8         V1194   1.900       .  S
O8          C603   1.263   1_554  A
V9          O593   1.900       .  S
V9         O1186   1.900       .  S
V9         O1780   1.899       .  S
V9         V1490   2.091       .  T
V10        O1781   1.899       .  S
V10         O599   1.900   1_655  S
V10        O1192   1.900       .  S
V10        V1489   2.091   1_654  T
C11         O297   1.263   1_565  A
C11         O600   1.263   1_556  A
C11         C294   1.435       .  S
C12         O298   1.263   1_554  A
C12         O599   1.263       .  A
C12         C296   1.435       .  S
C13        O1486   1.263       .  A
C13         C364   1.458       .  S
C14        O1485   1.263       .  A
C14         C420   1.458       .  S
O15         V615   1.900       .  S
O15         C617   1.263       .  A
O16        V1207   1.901   1_455  S
O16          C26   1.263       .  A
O17          V23   1.899       .  S
O17          C27   1.263       .  A
O18        V1799   1.899   1_545  S
O18        C1212   1.263       .  A
O19        V1800   1.899   1_545  S
O19          C28   1.263       .  A
O20          V24   1.899       .  S
O20        C1211   1.263   1_455  A
O21         V616   1.900       .  S
O21         C618   1.263   1_565  A
O22        V1208   1.901       .  S
O22          C25   1.263       .  A
V23         O607   1.900       .  S
V23        O1200   1.901       .  S
V23        O1794   1.899       .  S
V23        V1208   2.091       .  T
V24        O1795   1.899       .  S
V24         O613   1.900       .  S
V24        O1206   1.901   1_455  S
V24        V1207   2.091   1_455  T
C25         O607   1.263       .  A
C25         C289   1.435       .  S
C26         O613   1.263       .  A
C26         C291   1.435       .  S
C27        O1204   1.263       .  A
C27          C82   1.458       .  S
C28        O1202   1.263       .  A
C28         C138   1.458       .  S
O29         V629   1.901       .  S
O29         C631   1.263       .  A
O30          V37   1.900       .  S
O30          C40   1.263   1_554  A
O31          V37   1.900   1_545  S
O31          C41   1.263       .  A
O32         V629   1.900       .  S
O32          C42   1.263   1_554  A
O33         V630   1.900       .  S
O33         C338   1.263       .  A
O34          V38   1.899   1_545  S
O34         C337   1.263       .  A
O35         V630   1.901       .  S
O35         C928   1.263       .  A
O36          V38   1.900   1_545  S
O36         C335   1.263   1_545  A
V37         O621   1.901       .  S
V37         O624   1.900       .  S
V37         V334   2.091   1_554  T
V38         O625   1.900       .  S
V38         O627   1.901       .  S
V38         V333   2.091       .  T
C39         O621   1.263       .  A
C39         O332   1.263   1_564  A
C39         C295   1.435   1_565  S
C40         O923   1.263       .  A
C40         C293   1.435       .  S
C41         O330   1.263   1_554  A
C41         C152   1.458       .  S
C42         O329   1.263       .  A
C42          C96   1.458       .  S
O43          V51   1.900       .  S
O43          C53   1.263       .  A
O44         V643   1.901       .  S
O44         C646   1.263       .  A
O45         V643   1.899   1_545  S
O45          C55   1.263       .  A
O46          V51   1.899       .  S
O46          C56   1.263       .  A
O47          V52   1.899       .  S
O47          C56   1.263       .  A
O48         V644   1.899   1_545  S
O48          C55   1.263       .  A
O49          V52   1.900       .  S
O49          C54   1.263       .  A
O50         V644   1.901       .  S
O50         C645   1.263       .  A
V51         O636   1.901       .  S
V51         O637   1.899       .  S
V51          V52   2.091       .  T
V52         O640   1.899       .  S
V52         O642   1.901       .  S
C53         O642   1.263       .  A
C53         C292   1.435       .  S
C54         O636   1.263       .  A
C54         C290   1.435       .  S
C55         C166   1.457       .  S
C56         C110   1.457       .  S
O57          V65   1.899   1_554  S
O57          C67   1.265       .  A
O58         V361   1.899       .  S
O58         C364   1.263       .  A
O59         V361   1.899       .  S
O59          C69   1.265       .  A
O60          V65   1.900   1_554  S
O60          C70   1.265       .  A
O61          V66   1.899       .  S
O61        C1254   1.265   1_455  A
O62         V362   1.900       .  S
O62        C1253   1.265       .  A
O63          V66   1.899       .  S
O63        C1252   1.263   1_455  A
O64         V362   1.899       .  S
O64        C1547   1.265   1_455  A
V65         O354   1.899       .  S
V65         O355   1.899       .  S
V65        V1250   2.087   1_556  T
V66         O358   1.900   1_554  S
V66         O360   1.899   1_554  S
V66        V1249   2.087   1_454  T
C67        O1544   1.265   1_554  A
C67         C260   1.479       .  S
C68         O354   1.263   1_554  A
C68        O1247   1.263       .  A
C68         C309   1.458       .  S
C69        O1246   1.265       .  A
C69         C270   1.479       .  S
C70        O1245   1.265       .  A
C70         C280   1.479       .  S
O71          V79   1.899       .  S
O71        C1265   1.265   1_455  A
O72          V79   1.899       .  S
O72        C1266   1.263   1_455  A
O73          V79   1.900       .  S
O73        C1267   1.265       .  A
O74          V79   1.899       .  S
O74        C1268   1.265   1_455  A
O75          V80   1.900       .  S
O75          C84   1.265       .  A
O76          V80   1.899       .  S
O76          C83   1.265       .  A
O77          V80   1.899       .  S
O77          C82   1.263       .  A
O78          V80   1.899       .  S
O78          C81   1.265       .  A
V79        V1264   2.087   1_455  T
V80        V1263   2.087       .  T
C81        O1255   1.265       .  A
C81         C250   1.479       .  S
C82        O1256   1.263       .  A
C83        O1257   1.265       .  A
C83         C273   1.480       .  S
C84        O1258   1.265       .  A
C84         C283   1.479       .  S
O85          V93   1.899       .  S
O85          C95   1.265       .  A
O86         V389   1.899       .  S
O86         C392   1.263       .  A
O87         V389   1.900       .  S
O87          C97   1.265       .  A
O88          V93   1.899       .  S
O88          C98   1.265       .  A
O89          V94   1.900   1_554  S
O89          C98   1.265       .  A
O90         V390   1.899       .  S
O90          C97   1.265       .  A
O91          V94   1.899   1_554  S
O91          C96   1.263   1_554  A
O92         V390   1.899       .  S
O92         C391   1.265       .  A
V93         O382   1.899   1_554  S
V93         O383   1.900   1_554  S
V93          V94   2.087   1_554  T
V94         O386   1.899       .  S
V94         O388   1.899       .  S
C95         O388   1.265   1_554  A
C95         C220   1.479       .  S
C96         O382   1.263       .  A
C97         C230   1.479       .  S
C98         C240   1.479       .  S
O99         V107   1.899       .  S
O99         C109   1.265       .  A
O100        V107   1.899       .  S
O100        C110   1.263       .  A
O101        V107   1.899       .  S
O101        C111   1.265       .  A
O102        V107   1.900       .  S
O102        C112   1.265       .  A
O103        V108   1.899       .  S
O103        C112   1.265       .  A
O104        V108   1.900       .  S
O104        C111   1.265       .  A
O105        V108   1.899       .  S
O105        C110   1.263       .  A
O106        V108   1.899       .  S
O106        C109   1.265       .  A
V107        V108   2.087       .  T
C109        C210   1.480       .  S
C111        C233   1.480       .  S
C112        C243   1.480       .  S
O113        V417   1.899       .  S
O113       C1603   1.265       .  A
O114        V121   1.899   1_554  S
O114       C1308   1.263       .  A
O115        V121   1.900   1_554  S
O115       C1309   1.265       .  A
O116        V417   1.899       .  S
O116       C1310   1.265       .  A
O117        V418   1.900       .  S
O117        C126   1.265       .  A
O118        V122   1.899       .  S
O118        C125   1.265   1_455  A
O119        V418   1.899       .  S
O119        C420   1.263   1_455  A
O120        V122   1.899       .  S
O120        C123   1.265   1_455  A
V121        O409   1.899       .  S
V121        O412   1.899       .  S
V121       V1306   2.087   1_556  T
V122        O413   1.900   1_554  S
V122        O415   1.899       .  S
V122       V1305   2.087   1_454  T
C123       O1593   1.265   1_554  A
C123        C263   1.479       .  S
C124       O1298   1.263       .  A
C124        O415   1.263   1_655  A
C124        C310   1.458       .  S
C125       O1299   1.265       .  A
C125        C200   1.480       .  S
C126       O1300   1.265   1_455  A
C126        C190   1.479       .  S
O127        V135   1.899       .  S
O127       C1321   1.265   1_455  A
O128        V135   1.899       .  S
O128       C1322   1.263   1_455  A
O129        V135   1.899       .  S
O129       C1323   1.265   1_455  A
O130        V135   1.899       .  S
O130       C1324   1.265       .  A
O131        V136   1.899       .  S
O131        C140   1.265       .  A
O132        V136   1.899       .  S
O132        C139   1.265       .  A
O133        V136   1.899       .  S
O133        C138   1.263       .  A
O134        V136   1.899       .  S
O134        C137   1.265       .  A
V135       V1320   2.087   1_455  T
V136       V1319   2.087       .  T
C137       O1311   1.265       .  A
C137        C253   1.479       .  S
C138       O1312   1.263       .  A
C139       O1313   1.265       .  A
C139        C203   1.480       .  S
C140       O1314   1.265       .  A
C140        C193   1.480       .  S
O141        V445   1.899       .  S
O141        C447   1.265       .  A
O142        V149   1.899       .  S
O142        C152   1.263       .  A
O143        V149   1.899       .  S
O143        C153   1.265       .  A
O144        V445   1.900       .  S
O144        C154   1.265       .  A
O145        V446   1.899       .  S
O145        C154   1.265       .  A
O146        V150   1.900   1_554  S
O146        C153   1.265       .  A
O147        V446   1.899       .  S
O147        C448   1.263       .  A
O148        V150   1.899       .  S
O148        C151   1.265   1_556  A
V149        O437   1.899       .  S
V149        O440   1.900   1_554  S
V149        V150   2.087   1_554  T
V150        O441   1.899       .  S
V150        O443   1.899   1_556  S
C151        O437   1.265       .  A
C151        C223   1.479   1_554  S
C152        O443   1.263       .  A
C153        C180   1.479       .  S
C154        C170   1.479       .  S
O155        V163   1.899       .  S
O155        C165   1.265       .  A
O156        V163   1.899       .  S
O156        C166   1.263       .  A
O157        V163   1.900       .  S
O157        C167   1.265       .  A
O158        V163   1.899       .  S
O158        C168   1.265       .  A
O159        V164   1.900       .  S
O159        C168   1.265       .  A
O160        V164   1.899       .  S
O160        C167   1.265       .  A
O161        V164   1.899       .  S
O161        C166   1.263       .  A
O162        V164   1.899       .  S
O162        C165   1.265       .  A
V163        V164   2.087       .  T
C165        C213   1.480       .  S
C167        C183   1.480       .  S
C168        C173   1.480       .  S
C169        C170   1.405       .  A
C169        C174   1.397       .  A
C169        H175   1.083       .  S
C170        C171   1.405       .  A
C171        C172   1.398       .  A
C171        H176   1.083       .  S
C172        C173   1.405       .  A
C172        H177   1.083       .  S
C173        C174   1.405       .  A
C174        H178   1.083       .  S
C179        C180   1.405       .  A
C179        C184   1.398       .  A
C179        H185   1.083       .  S
C180        C181   1.405       .  A
C181        C182   1.397       .  A
C181        H186   1.083       .  S
C182        C183   1.405       .  A
C182        H187   1.083       .  S
C183        C184   1.405       .  A
C184        H188   1.083       .  S
C189        C190   1.405       .  A
C189        C194   1.398       .  A
C189        H195   1.083       .  S
C190       C1375   1.405   1_455  A
C191        C192   1.398       .  A
C191       C1374   1.405       .  A
C191        H196   1.083       .  S
C192        C193   1.405       .  A
C192        H197   1.083       .  S
C193       C1378   1.405       .  A
C194       C1377   1.405       .  A
C194        H198   1.083       .  S
C199        C200   1.405   1_455  A
C199        C204   1.398       .  A
C199        H205   1.083       .  S
C200       C1385   1.405       .  A
C201        C202   1.398       .  A
C201       C1384   1.405       .  A
C201        H206   1.083       .  S
C202        C203   1.405       .  A
C202        H207   1.083       .  S
C203       C1388   1.405       .  A
C204       C1387   1.405   1_455  A
C204        H208   1.083       .  S
C209        C210   1.405       .  A
C209        C214   1.398       .  A
C209        H215   1.083       .  S
C210        C211   1.405       .  A
C211        C212   1.398       .  A
C211        H216   1.083       .  S
C212        C213   1.405       .  A
C212        H217   1.083       .  S
C213        C214   1.405       .  A
C214        H218   1.083       .  S
C219        C220   1.405   1_556  A
C219        C224   1.398       .  A
C219        H225   1.083       .  S
C220        C517   1.405       .  A
C221        C222   1.398       .  A
C221        C516   1.405       .  A
C221        H226   1.083       .  S
C222        C519   1.405       .  A
C222        H227   1.083       .  S
C223        C224   1.405       .  A
C223        C518   1.405   1_556  A
C224        H228   1.083       .  S
C229        C230   1.405       .  A
C229        C234   1.398       .  A
C229        H235   1.083       .  S
C230        C231   1.405       .  A
C231        C232   1.397       .  A
C231        H236   1.083       .  S
C232        C233   1.405       .  A
C232        H237   1.083       .  S
C233        C234   1.405       .  A
C234        H238   1.083       .  S
C239        C240   1.405       .  A
C239        C244   1.397       .  A
C239        H245   1.083       .  S
C240        C241   1.405       .  A
C241        C242   1.398       .  A
C241        H246   1.083       .  S
C242        C243   1.405       .  A
C242        H247   1.083       .  S
C243        C244   1.405       .  A
C244        H248   1.083       .  S
C249        C250   1.405       .  A
C249        C254   1.398       .  A
C249        H255   1.083       .  S
C250       C1435   1.405       .  A
C251        C252   1.398       .  A
C251       C1434   1.405   1_455  A
C251        H256   1.083       .  S
C252       C1437   1.405   1_455  A
C252        H257   1.083       .  S
C253        C254   1.405       .  A
C253       C1436   1.405       .  A
C254        H258   1.083       .  S
C259        C264   1.398       .  A
C259       C1740   1.405   1_455  A
C259        H265   1.083       .  S
C260        C261   1.405   1_554  A
C260       C1739   1.405       .  A
C261        C262   1.398       .  A
C261        H266   1.083       .  S
C262       C1447   1.405   1_556  A
C262        H267   1.083       .  S
C263       C1446   1.405   1_554  A
C263        C560   1.405   1_655  A
C264        C559   1.405   1_455  A
C264        H268   1.083       .  S
C269        C270   1.405       .  A
C269        C274   1.398       .  A
C269        H275   1.083       .  S
C270       C1455   1.405       .  A
C271        C272   1.398       .  A
C271       C1454   1.405       .  A
C271        H276   1.083       .  S
C272       C1457   1.405       .  A
C272        H277   1.083       .  S
C273        C274   1.405       .  A
C273       C1456   1.405       .  A
C274        H278   1.083       .  S
C279        C280   1.405       .  A
C279        C284   1.398       .  A
C279        H285   1.083       .  S
C280       C1465   1.405       .  A
C281        C282   1.398       .  A
C281       C1464   1.405   1_455  A
C281        H286   1.083       .  S
C282       C1467   1.405   1_455  A
C282        H287   1.083       .  S
C283        C284   1.405       .  A
C283       C1466   1.405       .  A
C284        H288   1.083       .  S
C289        C290   1.206       .  T
C291        C292   1.206       .  T
C293        C294   1.206       .  T
C295        C888   1.206       .  T
C296        C887   1.206       .  T
O297        V897   1.900       .  S
O298       V1489   1.900       .  S
O299        V305   1.899       .  S
O299        C309   1.263   1_556  A
O300       V2081   1.899       .  S
O300        C310   1.263   1_456  A
O301       V2082   1.899   1_545  S
O301       C1198   1.263       .  A
O302        V306   1.899   1_455  S
O302       C1197   1.263   1_455  A
O303        V898   1.900   1_445  S
O303        C900   1.263       .  A
O304       V1490   1.900       .  S
O304        C899   1.263       .  A
V305        O889   1.900       .  S
V305       O1482   1.900       .  S
V305       O2076   1.899       .  S
V305       V1194   2.091   1_556  T
V306       O2077   1.899       .  S
V306        O895   1.900   1_655  S
V306       O1488   1.900       .  S
V306       V1193   2.091   1_655  T
C307        O896   1.263       .  A
C307        C590   1.435       .  S
C308        O895   1.263       .  A
C308        C592   1.435       .  S
C309       O1190   1.263       .  A
C310       O1189   1.263       .  A
O311        V911   1.900       .  S
O311        C913   1.263       .  A
O312       V1503   1.901   1_455  S
O312        C322   1.263       .  A
O313        V319   1.899       .  S
O313        C323   1.263       .  A
O314       V2095   1.899   1_545  S
O314       C1508   1.263       .  A
O315       V2096   1.899   1_545  S
O315        C324   1.263       .  A
O316        V320   1.899       .  S
O316       C1507   1.263   1_455  A
O317        V912   1.900       .  S
O317        C914   1.263   1_565  A
O318       V1504   1.901       .  S
O318        C321   1.263       .  A
V319        O903   1.900       .  S
V319       O1496   1.901       .  S
V319       O2090   1.899       .  S
V319       V1504   2.091       .  T
V320       O2091   1.899       .  S
V320        O909   1.900       .  S
V320       O1502   1.901   1_455  S
V320       V1503   2.091   1_455  T
C321        O903   1.263       .  A
C321        C585   1.435       .  S
C322        O909   1.263       .  A
C322        C587   1.435       .  S
C323       O1500   1.263       .  A
C323        C378   1.458       .  S
C324       O1498   1.263       .  A
C324        C434   1.458       .  S
O325        V925   1.901       .  S
O325        C927   1.263       .  A
O326        V333   1.900       .  S
O326        C336   1.263       .  A
O327        V333   1.900   1_545  S
O327        C337   1.263       .  A
O328        V925   1.900       .  S
O328        C338   1.263       .  A
O329        V926   1.900       .  S
O330        V334   1.899   1_545  S
O331        V926   1.901       .  S
O331        C632   1.263       .  A
O332        V334   1.900   1_545  S
V333        O917   1.901       .  S
V333        O920   1.900       .  S
V334        O921   1.900       .  S
V334        O923   1.901       .  S
C335        O917   1.263       .  A
C335        C591   1.435   1_565  S
C336        O627   1.263       .  A
C336        C589   1.435       .  S
C337        C448   1.458       .  S
C338        C392   1.458       .  S
O339        V347   1.900       .  S
O339        C349   1.263       .  A
O340        V939   1.901       .  S
O340        C942   1.263       .  A
O341        V939   1.899   1_545  S
O341        C351   1.263       .  A
O342        V347   1.899       .  S
O342        C352   1.263       .  A
O343        V348   1.899       .  S
O343        C352   1.263       .  A
O344        V940   1.899   1_545  S
O344        C351   1.263       .  A
O345        V348   1.900       .  S
O345        C350   1.263       .  A
O346        V940   1.901       .  S
O346        C941   1.263       .  A
V347        O932   1.901       .  S
V347        O933   1.899       .  S
V347        V348   2.091       .  T
V348        O936   1.899       .  S
V348        O938   1.901       .  S
C349        O938   1.263       .  A
C349        C588   1.435       .  S
C350        O932   1.263       .  A
C350        C586   1.435       .  S
C351        C462   1.457       .  S
C352        C406   1.457       .  S
O353        V361   1.899       .  S
O353        C363   1.265       .  A
O355        C365   1.265       .  A
O356        V361   1.900       .  S
O356        C366   1.265       .  A
O357        V362   1.899       .  S
O357       C1550   1.265   1_455  A
O358       C1549   1.265       .  A
O359        V362   1.899       .  S
O359       C1548   1.263   1_455  A
O360       C1251   1.265   1_456  A
V361       V1546   2.087       .  T
V362       V1545   2.087   1_455  T
C363       O1248   1.265       .  A
C363        C556   1.479       .  S
C364       O1543   1.263       .  A
C365       O1542   1.265       .  A
C365        C566   1.479       .  S
C366       O1541   1.265       .  A
C366        C576   1.479       .  S
O367        V375   1.899       .  S
O367       C1561   1.265   1_455  A
O368        V375   1.899       .  S
O368       C1562   1.263   1_455  A
O369        V375   1.900       .  S
O369       C1563   1.265       .  A
O370        V375   1.899       .  S
O370       C1564   1.265   1_455  A
O371        V376   1.900       .  S
O371        C380   1.265       .  A
O372        V376   1.899       .  S
O372        C379   1.265       .  A
O373        V376   1.899       .  S
O373        C378   1.263       .  A
O374        V376   1.899       .  S
O374        C377   1.265       .  A
V375       V1560   2.087   1_455  T
V376       V1559   2.087       .  T
C377       O1551   1.265       .  A
C377        C546   1.479       .  S
C378       O1552   1.263       .  A
C379       O1553   1.265       .  A
C379        C569   1.480       .  S
C380       O1554   1.265       .  A
C380        C579   1.479       .  S
O381        V389   1.899       .  S
O381        C391   1.265       .  A
O383        C393   1.265       .  A
O384        V389   1.899       .  S
O384        C394   1.265       .  A
O385        V390   1.900       .  S
O385        C394   1.265       .  A
O386        C393   1.265       .  A
O387        V390   1.899       .  S
O387        C392   1.263       .  A
V389        V390   2.087       .  T
C391        C516   1.479       .  S
C393        C526   1.479       .  S
C394        C536   1.479       .  S
O395        V403   1.899       .  S
O395        C405   1.265       .  A
O396        V403   1.899       .  S
O396        C406   1.263       .  A
O397        V403   1.899       .  S
O397        C407   1.265       .  A
O398        V403   1.900       .  S
O398        C408   1.265       .  A
O399        V404   1.899       .  S
O399        C408   1.265       .  A
O400        V404   1.900       .  S
O400        C407   1.265       .  A
O401        V404   1.899       .  S
O401        C406   1.263       .  A
O402        V404   1.899       .  S
O402        C405   1.265       .  A
V403        V404   2.087       .  T
C405        C506   1.480       .  S
C407        C529   1.480       .  S
C408        C539   1.480       .  S
O409       C1307   1.265   1_556  A
O410        V417   1.899       .  S
O410       C1604   1.263       .  A
O411        V417   1.900       .  S
O411       C1605   1.265       .  A
O412       C1606   1.265       .  A
O413        C422   1.265       .  A
O414        V418   1.899       .  S
O414        C421   1.265   1_455  A
O416        V418   1.899       .  S
O416        C419   1.265   1_455  A
V417       V1602   2.087       .  T
V418       V1601   2.087   1_455  T
C419       O1297   1.265       .  A
C419        C559   1.479       .  S
C420       O1594   1.263       .  A
C421       O1595   1.265       .  A
C421        C496   1.480       .  S
C422       O1596   1.265   1_455  A
C422        C486   1.479       .  S
O423        V431   1.899       .  S
O423       C1617   1.265   1_455  A
O424        V431   1.899       .  S
O424       C1618   1.263   1_455  A
O425        V431   1.899       .  S
O425       C1619   1.265   1_455  A
O426        V431   1.899       .  S
O426       C1620   1.265       .  A
O427        V432   1.899       .  S
O427        C436   1.265       .  A
O428        V432   1.899       .  S
O428        C435   1.265       .  A
O429        V432   1.899       .  S
O429        C434   1.263       .  A
O430        V432   1.899       .  S
O430        C433   1.265       .  A
V431       V1616   2.087   1_455  T
V432       V1615   2.087       .  T
C433       O1607   1.265       .  A
C433        C549   1.479       .  S
C434       O1608   1.263       .  A
C435       O1609   1.265       .  A
C435        C499   1.480       .  S
C436       O1610   1.265       .  A
C436        C489   1.480       .  S
O438        V445   1.899       .  S
O438        C448   1.263       .  A
O439        V445   1.899       .  S
O439        C449   1.265       .  A
O440        C450   1.265       .  A
O441        C450   1.265       .  A
O442        V446   1.900       .  S
O442        C449   1.265       .  A
O444        V446   1.899       .  S
O444        C447   1.265       .  A
V445        V446   2.087       .  T
C447        C519   1.479       .  S
C449        C476   1.479       .  S
C450        C466   1.479       .  S
O451        V459   1.899       .  S
O451        C461   1.265       .  A
O452        V459   1.899       .  S
O452        C462   1.263       .  A
O453        V459   1.900       .  S
O453        C463   1.265       .  A
O454        V459   1.899       .  S
O454        C464   1.265       .  A
O455        V460   1.900       .  S
O455        C464   1.265       .  A
O456        V460   1.899       .  S
O456        C463   1.265       .  A
O457        V460   1.899       .  S
O457        C462   1.263       .  A
O458        V460   1.899       .  S
O458        C461   1.265       .  A
V459        V460   2.087       .  T
C461        C509   1.480       .  S
C463        C479   1.480       .  S
C464        C469   1.480       .  S
C465        C466   1.405       .  A
C465        C470   1.397       .  A
C465        H471   1.083       .  S
C466        C467   1.405       .  A
C467        C468   1.398       .  A
C467        H472   1.083       .  S
C468        C469   1.405       .  A
C468        H473   1.083       .  S
C469        C470   1.405       .  A
C470        H474   1.083       .  S
C475        C476   1.405       .  A
C475        C480   1.398       .  A
C475        H481   1.083       .  S
C476        C477   1.405       .  A
C477        C478   1.397       .  A
C477        H482   1.083       .  S
C478        C479   1.405       .  A
C478        H483   1.083       .  S
C479        C480   1.405       .  A
C480        H484   1.083       .  S
C485        C486   1.405       .  A
C485        C490   1.398       .  A
C485        H491   1.083       .  S
C486       C1671   1.405   1_455  A
C487       C1670   1.405       .  A
C487        C488   1.398       .  A
C487        H492   1.083       .  S
C488        C489   1.405       .  A
C488        H493   1.083       .  S
C489       C1674   1.405       .  A
C490       C1673   1.405       .  A
C490        H494   1.083       .  S
C495        C496   1.405   1_455  A
C495        C500   1.398       .  A
C495        H501   1.083       .  S
C496       C1681   1.405       .  A
C497       C1680   1.405       .  A
C497        C498   1.398       .  A
C497        H502   1.083       .  S
C498        C499   1.405       .  A
C498        H503   1.083       .  S
C499       C1684   1.405       .  A
C500       C1683   1.405   1_455  A
C500        H504   1.083       .  S
C505        C506   1.405       .  A
C505        C510   1.398       .  A
C505        H511   1.083       .  S
C506        C507   1.405       .  A
C507        C508   1.398       .  A
C507        H512   1.083       .  S
C508        C509   1.405       .  A
C508        H513   1.083       .  S
C509        C510   1.405       .  A
C510        H514   1.083       .  S
C515        C516   1.405       .  A
C515        C520   1.398       .  A
C515        H521   1.083       .  S
C517        C518   1.398       .  A
C517        H522   1.083       .  S
C518        H523   1.083       .  S
C519        C520   1.405       .  A
C520        H524   1.083       .  S
C525        C526   1.405       .  A
C525        C530   1.398       .  A
C525        H531   1.083       .  S
C526        C527   1.405       .  A
C527        C528   1.397       .  A
C527        H532   1.083       .  S
C528        C529   1.405       .  A
C528        H533   1.083       .  S
C529        C530   1.405       .  A
C530        H534   1.083       .  S
C535        C536   1.405       .  A
C535        C540   1.397       .  A
C535        H541   1.083       .  S
C536        C537   1.405       .  A
C537        C538   1.398       .  A
C537        H542   1.083       .  S
C538        C539   1.405       .  A
C538        H543   1.083       .  S
C539        C540   1.405       .  A
C540        H544   1.083       .  S
C545        C546   1.405       .  A
C545        C550   1.398       .  A
C545        H551   1.083       .  S
C546       C1731   1.405       .  A
C547       C1730   1.405   1_455  A
C547        C548   1.398       .  A
C547        H552   1.083       .  S
C548       C1733   1.405   1_455  A
C548        H553   1.083       .  S
C549       C1732   1.405       .  A
C549        C550   1.405       .  A
C550        H554   1.083       .  S
C555       C1444   1.405   1_455  A
C555        C560   1.398       .  A
C555        H561   1.083       .  S
C556       C1443   1.405       .  A
C556        C557   1.405       .  A
C557        C558   1.398       .  A
C557        H562   1.083       .  S
C558       C1743   1.405       .  A
C558        H563   1.083       .  S
C559       C1742   1.405       .  A
C560        H564   1.083       .  S
C565        C566   1.405       .  A
C565        C570   1.398       .  A
C565        H571   1.083       .  S
C566       C1751   1.405       .  A
C567       C1750   1.405       .  A
C567        C568   1.398       .  A
C567        H572   1.083       .  S
C568       C1753   1.405       .  A
C568        H573   1.083       .  S
C569       C1752   1.405       .  A
C569        C570   1.405       .  A
C570        H574   1.083       .  S
C575        C576   1.405       .  A
C575        C580   1.398       .  A
C575        H581   1.083       .  S
C576       C1761   1.405       .  A
C577       C1760   1.405   1_455  A
C577        C578   1.398       .  A
C577        H582   1.083       .  S
C578       C1763   1.405   1_455  A
C578        H583   1.083       .  S
C579       C1762   1.405       .  A
C579        C580   1.405       .  A
C580        H584   1.083       .  S
C585        C586   1.206       .  T
C587        C588   1.206       .  T
C589        C590   1.206       .  T
C591       C1184   1.206       .  T
C592       C1183   1.206       .  T
O593        C899   1.263       .  A
O594       V1785   1.900   1_565  S
O594        C900   1.263   1_565  A
O595        V601   1.899   1_565  S
O595        C605   1.263       .  A
O596       V1193   1.899       .  S
O596        C606   1.263   1_455  A
O597       V1194   1.899       .  S
O597       C2086   1.263       .  A
O598        V602   1.899   1_455  S
O598       C2085   1.263   1_455  A
O600       V1786   1.900       .  S
V601       O1778   1.900   1_545  S
V601       O1188   1.899       .  S
V601       V2082   2.091   1_545  T
V602       O1189   1.899   1_565  S
V602       O1784   1.900       .  S
V602       V2081   2.091   1_664  T
C603        O889   1.263       .  A
C603        C886   1.435       .  S
C604        O890   1.263   1_544  A
C604        C888   1.435       .  S
C605       O2078   1.263       .  A
C605        C956   1.458       .  S
C606       O2077   1.263       .  A
C606       C1012   1.458       .  S
O608       V1799   1.901   1_445  S
O608        C618   1.263       .  A
O609        V615   1.899       .  S
O609        C619   1.263       .  A
O610       V1207   1.899       .  S
O610       C1804   1.263       .  A
O611       V1208   1.899       .  S
O611        C620   1.263       .  A
O612        V616   1.899       .  S
O612       C1803   1.263   1_455  A
O614       V1800   1.901   1_545  S
O614        C617   1.263   1_545  A
V615       O1792   1.901   1_565  S
V615       O1202   1.899   1_565  S
V615       V1800   2.091       .  T
V616       O1203   1.899   1_565  S
V616       O1798   1.901   1_465  S
V616       V1799   2.091   1_455  T
C617        C881   1.435       .  S
C618        C883   1.435       .  S
C619       O1796   1.263       .  A
C619        C674   1.458       .  S
C620       O1794   1.263       .  A
C620        C730   1.458       .  S
O622        V629   1.900       .  S
O622        C632   1.263   1_554  A
O623        V629   1.900       .  S
O623        C633   1.263       .  A
O624        C634   1.263   1_554  A
O625        C930   1.263       .  A
O626        V630   1.899       .  S
O626        C929   1.263       .  A
O628        V630   1.900       .  S
O628        C927   1.263       .  A
V629        V926   2.091   1_554  T
V630        V925   2.091       .  T
C631        O924   1.263   1_554  A
C631        C887   1.435       .  S
C632        C885   1.435       .  S
C633        O922   1.263   1_554  A
C633        C744   1.458       .  S
C634        O921   1.263       .  A
C634        C688   1.458       .  S
O635        V643   1.900   1_545  S
O635        C645   1.263   1_545  A
O637        C647   1.263       .  A
O638        V643   1.899       .  S
O638        C648   1.263       .  A
O639        V644   1.899       .  S
O639        C648   1.263       .  A
O640        C647   1.263       .  A
O641        V644   1.900       .  S
O641        C646   1.263       .  A
V643        V644   2.091       .  T
C645        C884   1.435   1_565  S
C646        C882   1.435       .  S
C647        C758   1.457       .  S
C648        C702   1.457       .  S
O649        V657   1.899   1_554  S
O649        C659   1.265       .  A
O650        V953   1.899       .  S
O650        C956   1.263       .  A
O651        V953   1.899       .  S
O651        C661   1.265       .  A
O652        V657   1.900   1_554  S
O652        C662   1.265       .  A
O653        V658   1.899       .  S
O653       C1846   1.265   1_455  A
O654        V954   1.900       .  S
O654       C1845   1.265       .  A
O655        V658   1.899       .  S
O655       C1844   1.263   1_455  A
O656        V954   1.899       .  S
O656       C2139   1.265   1_455  A
V657        O946   1.899       .  S
V657        O947   1.899       .  S
V657       V1842   2.087   1_556  T
V658        O950   1.900   1_554  S
V658        O952   1.899   1_554  S
V658       V1841   2.087   1_454  T
C659       O2136   1.265   1_554  A
C659        C852   1.479       .  S
C660        O946   1.263   1_554  A
C660       O1839   1.263       .  A
C660        C901   1.458       .  S
C661       O1838   1.265       .  A
C661        C862   1.479       .  S
C662       O1837   1.265       .  A
C662        C872   1.479       .  S
O663        V671   1.899       .  S
O663       C1857   1.265   1_455  A
O664        V671   1.899       .  S
O664       C1858   1.263   1_455  A
O665        V671   1.900       .  S
O665       C1859   1.265       .  A
O666        V671   1.899       .  S
O666       C1860   1.265   1_455  A
O667        V672   1.900       .  S
O667        C676   1.265       .  A
O668        V672   1.899       .  S
O668        C675   1.265       .  A
O669        V672   1.899       .  S
O669        C674   1.263       .  A
O670        V672   1.899       .  S
O670        C673   1.265       .  A
V671       V1856   2.087   1_455  T
V672       V1855   2.087       .  T
C673       O1847   1.265       .  A
C673        C842   1.479       .  S
C674       O1848   1.263       .  A
C675       O1849   1.265       .  A
C675        C865   1.480       .  S
C676       O1850   1.265       .  A
C676        C875   1.479       .  S
O677        V685   1.899       .  S
O677        C687   1.265       .  A
O678        V981   1.899       .  S
O678        C984   1.263       .  A
O679        V981   1.900       .  S
O679        C689   1.265       .  A
O680        V685   1.899       .  S
O680        C690   1.265       .  A
O681        V686   1.900   1_554  S
O681        C690   1.265       .  A
O682        V982   1.899       .  S
O682        C689   1.265       .  A
O683        V686   1.899   1_554  S
O683        C688   1.263   1_554  A
O684        V982   1.899       .  S
O684        C983   1.265       .  A
V685        O974   1.899   1_554  S
V685        O975   1.900   1_554  S
V685        V686   2.087   1_554  T
V686        O978   1.899       .  S
V686        O980   1.899       .  S
C687        O980   1.265   1_554  A
C687        C812   1.479       .  S
C688        O974   1.263       .  A
C689        C822   1.479       .  S
C690        C832   1.479       .  S
O691        V699   1.899       .  S
O691        C701   1.265       .  A
O692        V699   1.899       .  S
O692        C702   1.263       .  A
O693        V699   1.899       .  S
O693        C703   1.265       .  A
O694        V699   1.900       .  S
O694        C704   1.265       .  A
O695        V700   1.899       .  S
O695        C704   1.265       .  A
O696        V700   1.900       .  S
O696        C703   1.265       .  A
O697        V700   1.899       .  S
O697        C702   1.263       .  A
O698        V700   1.899       .  S
O698        C701   1.265       .  A
V699        V700   2.087       .  T
C701        C802   1.480       .  S
C703        C825   1.480       .  S
C704        C835   1.480       .  S
O705       V1009   1.899       .  S
O705       C2195   1.265       .  A
O706        V713   1.899   1_554  S
O706       C1900   1.263       .  A
O707        V713   1.900   1_554  S
O707       C1901   1.265       .  A
O708       V1009   1.899       .  S
O708       C1902   1.265       .  A
O709       V1010   1.900       .  S
O709        C718   1.265       .  A
O710        V714   1.899       .  S
O710        C717   1.265   1_455  A
O711       V1010   1.899       .  S
O711       C1012   1.263   1_455  A
O712        V714   1.899       .  S
O712        C715   1.265   1_455  A
V713       O1001   1.899       .  S
V713       O1004   1.899       .  S
V713       V1898   2.087   1_556  T
V714       O1005   1.900   1_554  S
V714       O1007   1.899       .  S
V714       V1897   2.087   1_454  T
C715       O2185   1.265   1_554  A
C715        C855   1.479       .  S
C716       O1890   1.263       .  A
C716       O1007   1.263   1_655  A
C716        C902   1.458       .  S
C717       O1891   1.265       .  A
C717        C792   1.480       .  S
C718       O1892   1.265   1_455  A
C718        C782   1.479       .  S
O719        V727   1.899       .  S
O719       C1913   1.265   1_455  A
O720        V727   1.899       .  S
O720       C1914   1.263   1_455  A
O721        V727   1.899       .  S
O721       C1915   1.265   1_455  A
O722        V727   1.899       .  S
O722       C1916   1.265       .  A
O723        V728   1.899       .  S
O723        C732   1.265       .  A
O724        V728   1.899       .  S
O724        C731   1.265       .  A
O725        V728   1.899       .  S
O725        C730   1.263       .  A
O726        V728   1.899       .  S
O726        C729   1.265       .  A
V727       V1912   2.087   1_455  T
V728       V1911   2.087       .  T
C729       O1903   1.265       .  A
C729        C845   1.479       .  S
C730       O1904   1.263       .  A
C731       O1905   1.265       .  A
C731        C795   1.480       .  S
C732       O1906   1.265       .  A
C732        C785   1.480       .  S
O733       V1037   1.899       .  S
O733       C1039   1.265       .  A
O734        V741   1.899       .  S
O734        C744   1.263       .  A
O735        V741   1.899       .  S
O735        C745   1.265       .  A
O736       V1037   1.900       .  S
O736        C746   1.265       .  A
O737       V1038   1.899       .  S
O737        C746   1.265       .  A
O738        V742   1.900   1_554  S
O738        C745   1.265       .  A
O739       V1038   1.899       .  S
O739       C1040   1.263       .  A
O740        V742   1.899       .  S
O740        C743   1.265   1_556  A
V741       O1029   1.899       .  S
V741       O1032   1.900   1_554  S
V741        V742   2.087   1_554  T
V742       O1033   1.899       .  S
V742       O1035   1.899   1_556  S
C743       O1029   1.265       .  A
C743        C815   1.479   1_554  S
C744       O1035   1.263       .  A
C745        C772   1.479       .  S
C746        C762   1.479       .  S
O747        V755   1.899       .  S
O747        C757   1.265       .  A
O748        V755   1.899       .  S
O748        C758   1.263       .  A
O749        V755   1.900       .  S
O749        C759   1.265       .  A
O750        V755   1.899       .  S
O750        C760   1.265       .  A
O751        V756   1.900       .  S
O751        C760   1.265       .  A
O752        V756   1.899       .  S
O752        C759   1.265       .  A
O753        V756   1.899       .  S
O753        C758   1.263       .  A
O754        V756   1.899       .  S
O754        C757   1.265       .  A
V755        V756   2.087       .  T
C757        C805   1.480       .  S
C759        C775   1.480       .  S
C760        C765   1.480       .  S
C761        C762   1.405       .  A
C761        C766   1.397       .  A
C761        H767   1.083       .  S
C762        C763   1.405       .  A
C763        C764   1.398       .  A
C763        H768   1.083       .  S
C764        C765   1.405       .  A
C764        H769   1.083       .  S
C765        C766   1.405       .  A
C766        H770   1.083       .  S
C771        C772   1.405       .  A
C771        C776   1.398       .  A
C771        H777   1.083       .  S
C772        C773   1.405       .  A
C773        C774   1.397       .  A
C773        H778   1.083       .  S
C774        C775   1.405       .  A
C774        H779   1.083       .  S
C775        C776   1.405       .  A
C776        H780   1.083       .  S
C781        C782   1.405       .  A
C781        C786   1.398       .  A
C781        H787   1.083       .  S
C782       C1967   1.405   1_455  A
C783       C1966   1.405       .  A
C783        C784   1.398       .  A
C783        H788   1.083       .  S
C784        C785   1.405       .  A
C784        H789   1.083       .  S
C785       C1970   1.405       .  A
C786       C1969   1.405       .  A
C786        H790   1.083       .  S
C791        C792   1.405   1_455  A
C791        C796   1.398       .  A
C791        H797   1.083       .  S
C792       C1977   1.405       .  A
C793       C1976   1.405       .  A
C793        C794   1.398       .  A
C793        H798   1.083       .  S
C794        C795   1.405       .  A
C794        H799   1.083       .  S
C795       C1980   1.405       .  A
C796       C1979   1.405   1_455  A
C796        H800   1.083       .  S
C801        C802   1.405       .  A
C801        C806   1.398       .  A
C801        H807   1.083       .  S
C802        C803   1.405       .  A
C803        C804   1.398       .  A
C803        H808   1.083       .  S
C804        C805   1.405       .  A
C804        H809   1.083       .  S
C805        C806   1.405       .  A
C806        H810   1.083       .  S
C811        C812   1.405   1_556  A
C811        C816   1.398       .  A
C811        H817   1.083       .  S
C812       C1109   1.405       .  A
C813       C1108   1.405       .  A
C813        C814   1.398       .  A
C813        H818   1.083       .  S
C814       C1111   1.405       .  A
C814        H819   1.083       .  S
C815       C1110   1.405   1_556  A
C815        C816   1.405       .  A
C816        H820   1.083       .  S
C821        C822   1.405       .  A
C821        C826   1.398       .  A
C821        H827   1.083       .  S
C822        C823   1.405       .  A
C823        C824   1.397       .  A
C823        H828   1.083       .  S
C824        C825   1.405       .  A
C824        H829   1.083       .  S
C825        C826   1.405       .  A
C826        H830   1.083       .  S
C831        C832   1.405       .  A
C831        C836   1.397       .  A
C831        H837   1.083       .  S
C832        C833   1.405       .  A
C833        C834   1.398       .  A
C833        H838   1.083       .  S
C834        C835   1.405       .  A
C834        H839   1.083       .  S
C835        C836   1.405       .  A
C836        H840   1.083       .  S
C841        C842   1.405       .  A
C841        C846   1.398       .  A
C841        H847   1.083       .  S
C842       C2027   1.405       .  A
C843       C2026   1.405   1_455  A
C843        C844   1.398       .  A
C843        H848   1.083       .  S
C844       C2029   1.405   1_455  A
C844        H849   1.083       .  S
C845       C2028   1.405       .  A
C845        C846   1.405       .  A
C846        H850   1.083       .  S
C851       C2332   1.405   1_455  A
C851        C856   1.398       .  A
C851        H857   1.083       .  S
C852       C2331   1.405       .  A
C852        C853   1.405   1_554  A
C853        C854   1.398       .  A
C853        H858   1.083       .  S
C854       C2039   1.405   1_556  A
C854        H859   1.083       .  S
C855       C2038   1.405   1_554  A
C855       C1152   1.405   1_655  A
C856       C1151   1.405   1_455  A
C856        H860   1.083       .  S
C861        C862   1.405       .  A
C861        C866   1.398       .  A
C861        H867   1.083       .  S
C862       C2047   1.405       .  A
C863       C2046   1.405       .  A
C863        C864   1.398       .  A
C863        H868   1.083       .  S
C864       C2049   1.405       .  A
C864        H869   1.083       .  S
C865       C2048   1.405       .  A
C865        C866   1.405       .  A
C866        H870   1.083       .  S
C871        C872   1.405       .  A
C871        C876   1.398       .  A
C871        H877   1.083       .  S
C872       C2057   1.405       .  A
C873       C2056   1.405   1_455  A
C873        C874   1.398       .  A
C873        H878   1.083       .  S
C874       C2059   1.405   1_455  A
C874        H879   1.083       .  S
C875       C2058   1.405       .  A
C875        C876   1.405       .  A
C876        H880   1.083       .  S
C881        C882   1.206       .  T
C883        C884   1.206       .  T
C885        C886   1.206       .  T
O890       V2081   1.900   1_565  S
O891        V897   1.899   1_565  S
O891        C901   1.263   1_556  A
O892       V1489   1.899       .  S
O892        C902   1.263   1_456  A
O893       V1490   1.899       .  S
O893       C1790   1.263       .  A
O894        V898   1.899   1_455  S
O894       C1789   1.263   1_455  A
O896       V2082   1.900       .  S
V897       O2074   1.900   1_545  S
V897       O1484   1.899       .  S
V897       V1786   2.091   1_546  T
V898       O1485   1.899   1_565  S
V898       O2080   1.900       .  S
V898       V1785   2.091   1_665  T
C899       C1182   1.435       .  S
C900       C1184   1.435       .  S
C901       O1782   1.263       .  A
C902       O1781   1.263       .  A
O904       V2095   1.901   1_445  S
O904        C914   1.263       .  A
O905        V911   1.899       .  S
O905        C915   1.263       .  A
O906       V1503   1.899       .  S
O906       C2100   1.263       .  A
O907       V1504   1.899       .  S
O907        C916   1.263       .  A
O908        V912   1.899       .  S
O908       C2099   1.263   1_455  A
O910       V2096   1.901   1_545  S
O910        C913   1.263   1_545  A
V911       O2088   1.901   1_565  S
V911       O1498   1.899   1_565  S
V911       V2096   2.091       .  T
V912       O1499   1.899   1_565  S
V912       O2094   1.901   1_465  S
V912       V2095   2.091   1_455  T
C913       C1177   1.435       .  S
C914       C1179   1.435       .  S
C915       O2092   1.263       .  A
C915        C970   1.458       .  S
C916       O2090   1.263       .  A
C916       C1026   1.458       .  S
O918        V925   1.900       .  S
O918        C928   1.263       .  A
O919        V925   1.900       .  S
O919        C929   1.263       .  A
O920        C930   1.263       .  A
O922        V926   1.899       .  S
O924        V926   1.900       .  S
C927       C1183   1.435       .  S
C928       C1181   1.435       .  S
C929       C1040   1.458       .  S
C930        C984   1.458       .  S
O931        V939   1.900   1_545  S
O931        C941   1.263   1_545  A
O933        C943   1.263       .  A
O934        V939   1.899       .  S
O934        C944   1.263       .  A
O935        V940   1.899       .  S
O935        C944   1.263       .  A
O936        C943   1.263       .  A
O937        V940   1.900       .  S
O937        C942   1.263       .  A
V939        V940   2.091       .  T
C941       C1180   1.435   1_565  S
C942       C1178   1.435       .  S
C943       C1054   1.457       .  S
C944        C998   1.457       .  S
O945        V953   1.899       .  S
O945        C955   1.265       .  A
O947        C957   1.265       .  A
O948        V953   1.900       .  S
O948        C958   1.265       .  A
O949        V954   1.899       .  S
O949       C2142   1.265   1_455  A
O950       C2141   1.265       .  A
O951        V954   1.899       .  S
O951       C2140   1.263   1_455  A
O952       C1843   1.265   1_456  A
V953       V2138   2.087       .  T
V954       V2137   2.087   1_455  T
C955       O1840   1.265       .  A
C955       C1148   1.479       .  S
C956       O2135   1.263       .  A
C957       O2134   1.265       .  A
C957       C1158   1.479       .  S
C958       O2133   1.265       .  A
C958       C1168   1.479       .  S
O959        V967   1.899       .  S
O959       C2153   1.265   1_455  A
O960        V967   1.899       .  S
O960       C2154   1.263   1_455  A
O961        V967   1.900       .  S
O961       C2155   1.265       .  A
O962        V967   1.899       .  S
O962       C2156   1.265   1_455  A
O963        V968   1.900       .  S
O963        C972   1.265       .  A
O964        V968   1.899       .  S
O964        C971   1.265       .  A
O965        V968   1.899       .  S
O965        C970   1.263       .  A
O966        V968   1.899       .  S
O966        C969   1.265       .  A
V967       V2152   2.087   1_455  T
V968       V2151   2.087       .  T
C969       O2143   1.265       .  A
C969       C1138   1.479       .  S
C970       O2144   1.263       .  A
C971       O2145   1.265       .  A
C971       C1161   1.480       .  S
C972       O2146   1.265       .  A
C972       C1171   1.479       .  S
O973        V981   1.899       .  S
O973        C983   1.265       .  A
O975        C985   1.265       .  A
O976        V981   1.899       .  S
O976        C986   1.265       .  A
O977        V982   1.900       .  S
O977        C986   1.265       .  A
O978        C985   1.265       .  A
O979        V982   1.899       .  S
O979        C984   1.263       .  A
V981        V982   2.087       .  T
C983       C1108   1.479       .  S
C985       C1118   1.479       .  S
C986       C1128   1.479       .  S
O987        V995   1.899       .  S
O987        C997   1.265       .  A
O988        V995   1.899       .  S
O988        C998   1.263       .  A
O989        V995   1.899       .  S
O989        C999   1.265       .  A
O990        V995   1.900       .  S
O990       C1000   1.265       .  A
O991        V996   1.899       .  S
O991       C1000   1.265       .  A
O992        V996   1.900       .  S
O992        C999   1.265       .  A
O993        V996   1.899       .  S
O993        C998   1.263       .  A
O994        V996   1.899       .  S
O994        C997   1.265       .  A
V995        V996   2.087       .  T
C997       C1098   1.480       .  S
C999       C1121   1.480       .  S
C1000      C1131   1.480       .  S
O1001      C1899   1.265   1_556  A
O1002      V1009   1.899       .  S
O1002      C2196   1.263       .  A
O1003      V1009   1.900       .  S
O1003      C2197   1.265       .  A
O1004      C2198   1.265       .  A
O1005      C1014   1.265       .  A
O1006      V1010   1.899       .  S
O1006      C1013   1.265   1_455  A
O1008      V1010   1.899       .  S
O1008      C1011   1.265   1_455  A
V1009      V2194   2.087       .  T
V1010      V2193   2.087   1_455  T
C1011      O1889   1.265       .  A
C1011      C1151   1.479       .  S
C1012      O2186   1.263       .  A
C1013      O2187   1.265       .  A
C1013      C1088   1.480       .  S
C1014      O2188   1.265   1_455  A
C1014      C1078   1.480       .  S
O1015      V1023   1.899       .  S
O1015      C2209   1.265   1_455  A
O1016      V1023   1.899       .  S
O1016      C2210   1.263   1_455  A
O1017      V1023   1.899       .  S
O1017      C2211   1.265   1_455  A
O1018      V1023   1.899       .  S
O1018      C2212   1.265       .  A
O1019      V1024   1.899       .  S
O1019      C1028   1.265       .  A
O1020      V1024   1.899       .  S
O1020      C1027   1.265       .  A
O1021      V1024   1.899       .  S
O1021      C1026   1.263       .  A
O1022      V1024   1.899       .  S
O1022      C1025   1.265       .  A
V1023      V2208   2.087   1_455  T
V1024      V2207   2.087       .  T
C1025      O2199   1.265       .  A
C1025      C1141   1.479       .  S
C1026      O2200   1.263       .  A
C1027      O2201   1.265       .  A
C1027      C1091   1.480       .  S
C1028      O2202   1.265       .  A
C1028      C1081   1.480       .  S
O1030      V1037   1.899       .  S
O1030      C1040   1.263       .  A
O1031      V1037   1.899       .  S
O1031      C1041   1.265       .  A
O1032      C1042   1.265       .  A
O1033      C1042   1.265       .  A
O1034      V1038   1.900       .  S
O1034      C1041   1.265       .  A
O1036      V1038   1.899       .  S
O1036      C1039   1.265       .  A
V1037      V1038   2.087       .  T
C1039      C1111   1.479       .  S
C1041      C1068   1.479       .  S
C1042      C1058   1.479       .  S
O1043      V1051   1.899       .  S
O1043      C1053   1.265       .  A
O1044      V1051   1.899       .  S
O1044      C1054   1.263       .  A
O1045      V1051   1.900       .  S
O1045      C1055   1.265       .  A
O1046      V1051   1.899       .  S
O1046      C1056   1.265       .  A
O1047      V1052   1.900       .  S
O1047      C1056   1.265       .  A
O1048      V1052   1.899       .  S
O1048      C1055   1.265       .  A
O1049      V1052   1.899       .  S
O1049      C1054   1.263       .  A
O1050      V1052   1.899       .  S
O1050      C1053   1.265       .  A
V1051      V1052   2.087       .  T
C1053      C1101   1.480       .  S
C1055      C1071   1.480       .  S
C1056      C1061   1.480       .  S
C1057      C1058   1.405       .  A
C1057      C1062   1.397       .  A
C1057      H1063   1.083       .  S
C1058      C1059   1.405       .  A
C1059      C1060   1.398       .  A
C1059      H1064   1.083       .  S
C1060      C1061   1.405       .  A
C1060      H1065   1.083       .  S
C1061      C1062   1.405       .  A
C1062      H1066   1.083       .  S
C1067      C1068   1.405       .  A
C1067      C1072   1.398       .  A
C1067      H1073   1.083       .  S
C1068      C1069   1.405       .  A
C1069      C1070   1.397       .  A
C1069      H1074   1.083       .  S
C1070      C1071   1.405       .  A
C1070      H1075   1.083       .  S
C1071      C1072   1.405       .  A
C1072      H1076   1.083       .  S
C1077      C1078   1.405       .  A
C1077      C1082   1.398       .  A
C1077      H1083   1.083       .  S
C1078      C2263   1.405   1_455  A
C1079      C2262   1.405       .  A
C1079      C1080   1.398       .  A
C1079      H1084   1.083       .  S
C1080      C1081   1.405       .  A
C1080      H1085   1.083       .  S
C1081      C2266   1.405       .  A
C1082      C2265   1.405       .  A
C1082      H1086   1.083       .  S
C1087      C1088   1.405   1_455  A
C1087      C1092   1.398       .  A
C1087      H1093   1.083       .  S
C1088      C2273   1.405       .  A
C1089      C2272   1.405       .  A
C1089      C1090   1.398       .  A
C1089      H1094   1.083       .  S
C1090      C1091   1.405       .  A
C1090      H1095   1.083       .  S
C1091      C2276   1.405       .  A
C1092      C2275   1.405   1_455  A
C1092      H1096   1.083       .  S
C1097      C1098   1.405       .  A
C1097      C1102   1.398       .  A
C1097      H1103   1.083       .  S
C1098      C1099   1.405       .  A
C1099      C1100   1.398       .  A
C1099      H1104   1.083       .  S
C1100      C1101   1.405       .  A
C1100      H1105   1.083       .  S
C1101      C1102   1.405       .  A
C1102      H1106   1.083       .  S
C1107      C1108   1.405       .  A
C1107      C1112   1.398       .  A
C1107      H1113   1.083       .  S
C1109      C1110   1.398       .  A
C1109      H1114   1.083       .  S
C1110      H1115   1.083       .  S
C1111      C1112   1.405       .  A
C1112      H1116   1.083       .  S
C1117      C1118   1.405       .  A
C1117      C1122   1.398       .  A
C1117      H1123   1.083       .  S
C1118      C1119   1.405       .  A
C1119      C1120   1.397       .  A
C1119      H1124   1.083       .  S
C1120      C1121   1.405       .  A
C1120      H1125   1.083       .  S
C1121      C1122   1.405       .  A
C1122      H1126   1.083       .  S
C1127      C1128   1.405       .  A
C1127      C1132   1.397       .  A
C1127      H1133   1.083       .  S
C1128      C1129   1.405       .  A
C1129      C1130   1.398       .  A
C1129      H1134   1.083       .  S
C1130      C1131   1.405       .  A
C1130      H1135   1.083       .  S
C1131      C1132   1.405       .  A
C1132      H1136   1.083       .  S
C1137      C1138   1.405       .  A
C1137      C1142   1.398       .  A
C1137      H1143   1.083       .  S
C1138      C2323   1.405       .  A
C1139      C2322   1.405   1_455  A
C1139      C1140   1.398       .  A
C1139      H1144   1.083       .  S
C1140      C2325   1.405   1_455  A
C1140      H1145   1.083       .  S
C1141      C2324   1.405       .  A
C1141      C1142   1.405       .  A
C1142      H1146   1.083       .  S
C1147      C2036   1.405   1_455  A
C1147      C1152   1.398       .  A
C1147      H1153   1.083       .  S
C1148      C2035   1.405       .  A
C1148      C1149   1.405       .  A
C1149      C1150   1.398       .  A
C1149      H1154   1.083       .  S
C1150      C2335   1.405       .  A
C1150      H1155   1.083       .  S
C1151      C2334   1.405       .  A
C1152      H1156   1.083       .  S
C1157      C1158   1.405       .  A
C1157      C1162   1.398       .  A
C1157      H1163   1.083       .  S
C1158      C2343   1.405       .  A
C1159      C2342   1.405       .  A
C1159      C1160   1.398       .  A
C1159      H1164   1.083       .  S
C1160      C2345   1.405       .  A
C1160      H1165   1.083       .  S
C1161      C2344   1.405       .  A
C1161      C1162   1.405       .  A
C1162      H1166   1.083       .  S
C1167      C1168   1.405       .  A
C1167      C1172   1.398       .  A
C1167      H1173   1.083       .  S
C1168      C2353   1.405       .  A
C1169      C2352   1.405   1_455  A
C1169      C1170   1.398       .  A
C1169      H1174   1.083       .  S
C1170      C2355   1.405   1_455  A
C1170      H1175   1.083       .  S
C1171      C2354   1.405       .  A
C1171      C1172   1.405       .  A
C1172      H1176   1.083       .  S
C1177      C1178   1.206       .  T
C1179      C1180   1.206       .  T
C1181      C1182   1.206       .  T
O1185      V1785   1.900   1_655  S
O1185      C1491   1.263   1_545  A
O1186      C1492   1.263       .  A
O1187      V1193   1.899   1_655  S
O1187      C1197   1.263       .  A
O1188      C1198   1.263       .  A
O1190      V1194   1.899       .  S
O1191      V1786   1.900   1_545  S
O1191      C1788   1.263       .  A
O1192      C1787   1.263   1_554  A
V1193      O1777   1.900   1_455  S
V1194      O1783   1.900       .  S
C1195      O1481   1.263   1_565  A
C1195      O1784   1.263   1_556  A
C1195      C1478   1.435       .  S
C1196      O1482   1.263   1_554  A
C1196      O1783   1.263       .  A
C1196      C1480   1.435       .  S
C1197      C1548   1.458       .  S
C1198      C1604   1.458       .  S
O1199      V1799   1.900       .  S
O1199      C1801   1.263       .  A
O1200      C1210   1.263       .  A
O1201      V1207   1.899       .  S
O1201      C1211   1.263       .  A
O1203      C1212   1.263   1_455  A
O1204      V1208   1.899       .  S
O1205      V1800   1.900       .  S
O1205      C1802   1.263   1_565  A
O1206      C1209   1.263       .  A
V1207      O1791   1.900       .  S
V1208      O1797   1.900       .  S
C1209      O1791   1.263       .  A
C1209      C1473   1.435       .  S
C1210      O1797   1.263       .  A
C1210      C1475   1.435       .  S
C1211      C1266   1.458       .  S
C1212      C1322   1.458       .  S
O1213      V1813   1.901       .  S
O1213      C1815   1.263       .  A
O1214      V1221   1.900       .  S
O1214      C1224   1.263   1_554  A
O1215      V1221   1.900   1_545  S
O1215      C1225   1.263       .  A
O1216      V1813   1.900       .  S
O1216      C1226   1.263   1_554  A
O1217      V1814   1.900       .  S
O1217      C1522   1.263       .  A
O1218      V1222   1.899   1_545  S
O1218      C1521   1.263       .  A
O1219      V1814   1.901       .  S
O1219      C2112   1.263       .  A
O1220      V1222   1.900   1_545  S
O1220      C1519   1.263   1_545  A
V1221      O1805   1.901       .  S
V1221      O1808   1.900       .  S
V1221      V1518   2.091   1_554  T
V1222      O1809   1.900       .  S
V1222      O1811   1.901       .  S
V1222      V1517   2.091       .  T
C1223      O1805   1.263       .  A
C1223      O1516   1.263   1_564  A
C1223      C1479   1.435   1_565  S
C1224      O2107   1.263       .  A
C1224      C1477   1.435       .  S
C1225      O1514   1.263   1_554  A
C1225      C1336   1.458       .  S
C1226      O1513   1.263       .  A
C1226      C1280   1.458       .  S
O1227      V1235   1.900       .  S
O1227      C1237   1.263       .  A
O1228      V1827   1.901       .  S
O1228      C1830   1.263       .  A
O1229      V1827   1.899   1_545  S
O1229      C1239   1.263       .  A
O1230      V1235   1.899       .  S
O1230      C1240   1.263       .  A
O1231      V1236   1.899       .  S
O1231      C1240   1.263       .  A
O1232      V1828   1.899   1_545  S
O1232      C1239   1.263       .  A
O1233      V1236   1.900       .  S
O1233      C1238   1.263       .  A
O1234      V1828   1.901       .  S
O1234      C1829   1.263       .  A
V1235      O1820   1.901       .  S
V1235      O1821   1.899       .  S
V1235      V1236   2.091       .  T
V1236      O1824   1.899       .  S
V1236      O1826   1.901       .  S
C1237      O1826   1.263       .  A
C1237      C1476   1.435       .  S
C1238      O1820   1.263       .  A
C1238      C1474   1.435       .  S
C1239      C1350   1.457       .  S
C1240      C1294   1.457       .  S
O1241      V1249   1.899   1_554  S
O1241      C1251   1.265       .  A
O1242      V1545   1.899       .  S
O1242      C1548   1.263       .  A
O1243      V1545   1.899       .  S
O1243      C1253   1.265   1_655  A
O1244      V1249   1.900   1_554  S
O1244      C1254   1.265       .  A
O1245      V1250   1.899       .  S
O1246      V1546   1.900       .  S
O1247      V1250   1.899       .  S
O1248      V1546   1.899       .  S
V1249      O1538   1.899       .  S
V1249      O1539   1.899       .  S
V1250      O1542   1.900   1_554  S
V1250      O1544   1.899   1_554  S
C1251      C1444   1.479       .  S
C1252      O1538   1.263   1_554  A
C1252      C1493   1.458       .  S
C1253      C1454   1.479       .  S
C1254      C1464   1.479       .  S
O1255      V1263   1.899       .  S
O1256      V1263   1.899       .  S
O1257      V1263   1.900       .  S
O1258      V1263   1.899       .  S
O1259      V1264   1.900       .  S
O1259      C1268   1.265       .  A
O1260      V1264   1.899       .  S
O1260      C1267   1.265   1_655  A
O1261      V1264   1.899       .  S
O1261      C1266   1.263       .  A
O1262      V1264   1.899       .  S
O1262      C1265   1.265       .  A
C1265      C1434   1.479       .  S
C1267      C1457   1.480       .  S
C1268      C1467   1.479       .  S
O1269      V1277   1.899       .  S
O1269      C1279   1.265       .  A
O1270      V1573   1.899       .  S
O1270      C1576   1.263       .  A
O1271      V1573   1.900       .  S
O1271      C1281   1.265       .  A
O1272      V1277   1.899       .  S
O1272      C1282   1.265       .  A
O1273      V1278   1.900   1_554  S
O1273      C1282   1.265       .  A
O1274      V1574   1.899       .  S
O1274      C1281   1.265       .  A
O1275      V1278   1.899   1_554  S
O1275      C1280   1.263   1_554  A
O1276      V1574   1.899       .  S
O1276      C1575   1.265       .  A
V1277      O1566   1.899   1_554  S
V1277      O1567   1.900   1_554  S
V1277      V1278   2.087   1_554  T
V1278      O1570   1.899       .  S
V1278      O1572   1.899       .  S
C1279      O1572   1.265   1_554  A
C1279      C1404   1.479       .  S
C1280      O1566   1.263       .  A
C1281      C1414   1.479       .  S
C1282      C1424   1.479       .  S
O1283      V1291   1.899       .  S
O1283      C1293   1.265       .  A
O1284      V1291   1.899       .  S
O1284      C1294   1.263       .  A
O1285      V1291   1.899       .  S
O1285      C1295   1.265       .  A
O1286      V1291   1.900       .  S
O1286      C1296   1.265       .  A
O1287      V1292   1.899       .  S
O1287      C1296   1.265       .  A
O1288      V1292   1.900       .  S
O1288      C1295   1.265       .  A
O1289      V1292   1.899       .  S
O1289      C1294   1.263       .  A
O1290      V1292   1.899       .  S
O1290      C1293   1.265       .  A
V1291      V1292   2.087       .  T
C1293      C1394   1.480       .  S
C1295      C1417   1.480       .  S
C1296      C1427   1.480       .  S
O1297      V1601   1.899       .  S
O1298      V1305   1.899   1_554  S
O1299      V1305   1.900   1_554  S
O1300      V1601   1.899       .  S
O1301      V1602   1.900       .  S
O1301      C1310   1.265       .  A
O1302      V1306   1.899       .  S
O1302      C1309   1.265       .  A
O1303      V1602   1.899       .  S
O1303      C1604   1.263       .  A
O1304      V1306   1.899       .  S
O1304      C1307   1.265       .  A
V1305      O1593   1.899       .  S
V1305      O1596   1.899       .  S
V1306      O1597   1.900   1_554  S
V1306      O1599   1.899       .  S
C1307      C1447   1.479       .  S
C1308      O1599   1.263       .  A
C1308      C1494   1.458       .  S
C1309      C1384   1.480       .  S
C1310      C1374   1.479       .  S
O1311      V1319   1.899       .  S
O1312      V1319   1.899       .  S
O1313      V1319   1.899       .  S
O1314      V1319   1.899       .  S
O1315      V1320   1.899       .  S
O1315      C1324   1.265   1_655  A
O1316      V1320   1.899       .  S
O1316      C1323   1.265       .  A
O1317      V1320   1.899       .  S
O1317      C1322   1.263       .  A
O1318      V1320   1.899       .  S
O1318      C1321   1.265       .  A
C1321      C1437   1.479       .  S
C1323      C1387   1.480       .  S
C1324      C1377   1.480       .  S
O1325      V1629   1.899       .  S
O1325      C1631   1.265       .  A
O1326      V1333   1.899       .  S
O1326      C1336   1.263       .  A
O1327      V1333   1.899       .  S
O1327      C1337   1.265       .  A
O1328      V1629   1.900       .  S
O1328      C1338   1.265       .  A
O1329      V1630   1.899       .  S
O1329      C1338   1.265       .  A
O1330      V1334   1.900   1_554  S
O1330      C1337   1.265       .  A
O1331      V1630   1.899       .  S
O1331      C1632   1.263       .  A
O1332      V1334   1.899       .  S
O1332      C1335   1.265   1_556  A
V1333      O1621   1.899       .  S
V1333      O1624   1.900   1_554  S
V1333      V1334   2.087   1_554  T
V1334      O1625   1.899       .  S
V1334      O1627   1.899   1_556  S
C1335      O1621   1.265       .  A
C1335      C1407   1.479   1_554  S
C1336      O1627   1.263       .  A
C1337      C1364   1.479       .  S
C1338      C1354   1.479       .  S
O1339      V1347   1.899       .  S
O1339      C1349   1.265       .  A
O1340      V1347   1.899       .  S
O1340      C1350   1.263       .  A
O1341      V1347   1.900       .  S
O1341      C1351   1.265       .  A
O1342      V1347   1.899       .  S
O1342      C1352   1.265       .  A
O1343      V1348   1.900       .  S
O1343      C1352   1.265       .  A
O1344      V1348   1.899       .  S
O1344      C1351   1.265       .  A
O1345      V1348   1.899       .  S
O1345      C1350   1.263       .  A
O1346      V1348   1.899       .  S
O1346      C1349   1.265       .  A
V1347      V1348   2.087       .  T
C1349      C1397   1.480       .  S
C1351      C1367   1.480       .  S
C1352      C1357   1.480       .  S
C1353      C1354   1.405       .  A
C1353      C1358   1.397       .  A
C1353      H1359   1.083       .  S
C1354      C1355   1.405       .  A
C1355      C1356   1.398       .  A
C1355      H1360   1.083       .  S
C1356      C1357   1.405       .  A
C1356      H1361   1.083       .  S
C1357      C1358   1.405       .  A
C1358      H1362   1.083       .  S
C1363      C1364   1.405       .  A
C1363      C1368   1.398       .  A
C1363      H1369   1.083       .  S
C1364      C1365   1.405       .  A
C1365      C1366   1.397       .  A
C1365      H1370   1.083       .  S
C1366      C1367   1.405       .  A
C1366      H1371   1.083       .  S
C1367      C1368   1.405       .  A
C1368      H1372   1.083       .  S
C1373      C1374   1.405       .  A
C1373      C1378   1.398       .  A
C1373      H1379   1.083       .  S
C1375      C1376   1.398       .  A
C1375      H1380   1.083       .  S
C1376      C1377   1.405   1_655  A
C1376      H1381   1.083       .  S
C1378      H1382   1.083       .  S
C1383      C1384   1.405       .  A
C1383      C1388   1.398       .  A
C1383      H1389   1.083       .  S
C1385      C1386   1.398       .  A
C1385      H1390   1.083       .  S
C1386      C1387   1.405       .  A
C1386      H1391   1.083       .  S
C1388      H1392   1.083       .  S
C1393      C1394   1.405       .  A
C1393      C1398   1.398       .  A
C1393      H1399   1.083       .  S
C1394      C1395   1.405       .  A
C1395      C1396   1.398       .  A
C1395      H1400   1.083       .  S
C1396      C1397   1.405       .  A
C1396      H1401   1.083       .  S
C1397      C1398   1.405       .  A
C1398      H1402   1.083       .  S
C1403      C1404   1.405   1_556  A
C1403      C1408   1.398       .  A
C1403      H1409   1.083       .  S
C1404      C1701   1.405       .  A
C1405      C1700   1.405       .  A
C1405      C1406   1.398       .  A
C1405      H1410   1.083       .  S
C1406      C1703   1.405       .  A
C1406      H1411   1.083       .  S
C1407      C1702   1.405   1_556  A
C1407      C1408   1.405       .  A
C1408      H1412   1.083       .  S
C1413      C1414   1.405       .  A
C1413      C1418   1.398       .  A
C1413      H1419   1.083       .  S
C1414      C1415   1.405       .  A
C1415      C1416   1.397       .  A
C1415      H1420   1.083       .  S
C1416      C1417   1.405       .  A
C1416      H1421   1.083       .  S
C1417      C1418   1.405       .  A
C1418      H1422   1.083       .  S
C1423      C1424   1.405       .  A
C1423      C1428   1.397       .  A
C1423      H1429   1.083       .  S
C1424      C1425   1.405       .  A
C1425      C1426   1.398       .  A
C1425      H1430   1.083       .  S
C1426      C1427   1.405       .  A
C1426      H1431   1.083       .  S
C1427      C1428   1.405       .  A
C1428      H1432   1.083       .  S
C1433      C1434   1.405       .  A
C1433      C1438   1.398       .  A
C1433      H1439   1.083       .  S
C1435      C1436   1.398       .  A
C1435      H1440   1.083       .  S
C1436      H1441   1.083       .  S
C1437      C1438   1.405       .  A
C1438      H1442   1.083       .  S
C1443      C1448   1.398       .  A
C1443      H1449   1.083       .  S
C1444      C1445   1.405   1_554  A
C1445      C1446   1.398       .  A
C1445      H1450   1.083       .  S
C1446      H1451   1.083       .  S
C1447      C1744   1.405       .  A
C1448      C1743   1.405       .  A
C1448      H1452   1.083       .  S
C1453      C1454   1.405   1_655  A
C1453      C1458   1.398       .  A
C1453      H1459   1.083       .  S
C1455      C1456   1.398       .  A
C1455      H1460   1.083       .  S
C1456      H1461   1.083       .  S
C1457      C1458   1.405   1_455  A
C1458      H1462   1.083       .  S
C1463      C1464   1.405       .  A
C1463      C1468   1.398       .  A
C1463      H1469   1.083       .  S
C1465      C1466   1.398       .  A
C1465      H1470   1.083       .  S
C1466      H1471   1.083       .  S
C1467      C1468   1.405       .  A
C1468      H1472   1.083       .  S
C1473      C1474   1.206       .  T
C1475      C1476   1.206       .  T
C1477      C1478   1.206       .  T
C1479      C2072   1.206       .  T
C1480      C2071   1.206       .  T
O1481      V2081   1.900   1_655  S
O1483      V1489   1.899   1_655  S
O1483      C1493   1.263   1_556  A
O1484      C1494   1.263   1_556  A
O1486      V1490   1.899       .  S
O1487      V2082   1.900   1_545  S
O1487      C2084   1.263       .  A
O1488      C2083   1.263       .  A
V1489      O2073   1.900   1_455  S
V1490      O2079   1.900       .  S
C1491      O2080   1.263       .  A
C1491      C1774   1.435       .  S
C1492      O2079   1.263       .  A
C1492      C1776   1.435       .  S
O1495      V2095   1.900       .  S
O1495      C2097   1.263       .  A
O1496      C1506   1.263       .  A
O1497      V1503   1.899       .  S
O1497      C1507   1.263       .  A
O1499      C1508   1.263   1_455  A
O1500      V1504   1.899       .  S
O1501      V2096   1.900       .  S
O1501      C2098   1.263   1_565  A
O1502      C1505   1.263       .  A
V1503      O2087   1.900       .  S
V1504      O2093   1.900       .  S
C1505      O2087   1.263       .  A
C1505      C1769   1.435       .  S
C1506      O2093   1.263       .  A
C1506      C1771   1.435       .  S
C1507      C1562   1.458       .  S
C1508      C1618   1.458       .  S
O1509      V2109   1.901       .  S
O1509      C2111   1.263       .  A
O1510      V1517   1.900       .  S
O1510      C1520   1.263       .  A
O1511      V1517   1.900   1_545  S
O1511      C1521   1.263       .  A
O1512      V2109   1.900       .  S
O1512      C1522   1.263       .  A
O1513      V2110   1.900       .  S
O1514      V1518   1.899   1_545  S
O1515      V2110   1.901       .  S
O1515      C1816   1.263       .  A
O1516      V1518   1.900   1_545  S
V1517      O2101   1.901       .  S
V1517      O2104   1.900       .  S
V1518      O2105   1.900       .  S
V1518      O2107   1.901       .  S
C1519      O2101   1.263       .  A
C1519      C1775   1.435   1_565  S
C1520      O1811   1.263       .  A
C1520      C1773   1.435       .  S
C1521      C1632   1.458       .  S
C1522      C1576   1.458       .  S
O1523      V1531   1.900       .  S
O1523      C1533   1.263       .  A
O1524      V2123   1.901       .  S
O1524      C2126   1.263       .  A
O1525      V2123   1.899   1_545  S
O1525      C1535   1.263       .  A
O1526      V1531   1.899       .  S
O1526      C1536   1.263       .  A
O1527      V1532   1.899       .  S
O1527      C1536   1.263       .  A
O1528      V2124   1.899   1_545  S
O1528      C1535   1.263       .  A
O1529      V1532   1.900       .  S
O1529      C1534   1.263       .  A
O1530      V2124   1.901       .  S
O1530      C2125   1.263       .  A
V1531      O2116   1.901       .  S
V1531      O2117   1.899       .  S
V1531      V1532   2.091       .  T
V1532      O2120   1.899       .  S
V1532      O2122   1.901       .  S
C1533      O2122   1.263       .  A
C1533      C1772   1.435       .  S
C1534      O2116   1.263       .  A
C1534      C1770   1.435       .  S
C1535      C1646   1.457       .  S
C1536      C1590   1.457       .  S
O1537      V1545   1.899       .  S
O1537      C1547   1.265       .  A
O1539      C1549   1.265   1_655  A
O1540      V1545   1.900       .  S
O1540      C1550   1.265       .  A
O1541      V1546   1.899       .  S
O1543      V1546   1.899       .  S
C1547      C1740   1.479       .  S
C1549      C1750   1.479       .  S
C1550      C1760   1.479       .  S
O1551      V1559   1.899       .  S
O1552      V1559   1.899       .  S
O1553      V1559   1.900       .  S
O1554      V1559   1.899       .  S
O1555      V1560   1.900       .  S
O1555      C1564   1.265       .  A
O1556      V1560   1.899       .  S
O1556      C1563   1.265   1_655  A
O1557      V1560   1.899       .  S
O1557      C1562   1.263       .  A
O1558      V1560   1.899       .  S
O1558      C1561   1.265       .  A
C1561      C1730   1.479       .  S
C1563      C1753   1.480       .  S
C1564      C1763   1.479       .  S
O1565      V1573   1.899       .  S
O1565      C1575   1.265       .  A
O1567      C1577   1.265       .  A
O1568      V1573   1.899       .  S
O1568      C1578   1.265       .  A
O1569      V1574   1.900       .  S
O1569      C1578   1.265       .  A
O1570      C1577   1.265       .  A
O1571      V1574   1.899       .  S
O1571      C1576   1.263       .  A
V1573      V1574   2.087       .  T
C1575      C1700   1.479       .  S
C1577      C1710   1.479       .  S
C1578      C1720   1.479       .  S
O1579      V1587   1.899       .  S
O1579      C1589   1.265       .  A
O1580      V1587   1.899       .  S
O1580      C1590   1.263       .  A
O1581      V1587   1.899       .  S
O1581      C1591   1.265       .  A
O1582      V1587   1.900       .  S
O1582      C1592   1.265       .  A
O1583      V1588   1.899       .  S
O1583      C1592   1.265       .  A
O1584      V1588   1.900       .  S
O1584      C1591   1.265       .  A
O1585      V1588   1.899       .  S
O1585      C1590   1.263       .  A
O1586      V1588   1.899       .  S
O1586      C1589   1.265       .  A
V1587      V1588   2.087       .  T
C1589      C1690   1.480       .  S
C1591      C1713   1.480       .  S
C1592      C1723   1.480       .  S
O1594      V1601   1.899       .  S
O1595      V1601   1.900       .  S
O1597      C1606   1.265       .  A
O1598      V1602   1.899       .  S
O1598      C1605   1.265       .  A
O1600      V1602   1.899       .  S
O1600      C1603   1.265       .  A
C1603      C1743   1.479       .  S
C1605      C1680   1.480       .  S
C1606      C1670   1.479       .  S
O1607      V1615   1.899       .  S
O1608      V1615   1.899       .  S
O1609      V1615   1.899       .  S
O1610      V1615   1.899       .  S
O1611      V1616   1.899       .  S
O1611      C1620   1.265   1_655  A
O1612      V1616   1.899       .  S
O1612      C1619   1.265       .  A
O1613      V1616   1.899       .  S
O1613      C1618   1.263       .  A
O1614      V1616   1.899       .  S
O1614      C1617   1.265       .  A
C1617      C1733   1.479       .  S
C1619      C1683   1.480       .  S
C1620      C1673   1.480       .  S
O1622      V1629   1.899       .  S
O1622      C1632   1.263       .  A
O1623      V1629   1.899       .  S
O1623      C1633   1.265       .  A
O1624      C1634   1.265       .  A
O1625      C1634   1.265       .  A
O1626      V1630   1.900       .  S
O1626      C1633   1.265       .  A
O1628      V1630   1.899       .  S
O1628      C1631   1.265       .  A
V1629      V1630   2.087       .  T
C1631      C1703   1.479       .  S
C1633      C1660   1.479       .  S
C1634      C1650   1.479       .  S
O1635      V1643   1.899       .  S
O1635      C1645   1.265       .  A
O1636      V1643   1.899       .  S
O1636      C1646   1.263       .  A
O1637      V1643   1.900       .  S
O1637      C1647   1.265       .  A
O1638      V1643   1.899       .  S
O1638      C1648   1.265       .  A
O1639      V1644   1.900       .  S
O1639      C1648   1.265       .  A
O1640      V1644   1.899       .  S
O1640      C1647   1.265       .  A
O1641      V1644   1.899       .  S
O1641      C1646   1.263       .  A
O1642      V1644   1.899       .  S
O1642      C1645   1.265       .  A
V1643      V1644   2.087       .  T
C1645      C1693   1.480       .  S
C1647      C1663   1.480       .  S
C1648      C1653   1.480       .  S
C1649      C1650   1.405       .  A
C1649      C1654   1.397       .  A
C1649      H1655   1.083       .  S
C1650      C1651   1.405       .  A
C1651      C1652   1.398       .  A
C1651      H1656   1.083       .  S
C1652      C1653   1.405       .  A
C1652      H1657   1.083       .  S
C1653      C1654   1.405       .  A
C1654      H1658   1.083       .  S
C1659      C1660   1.405       .  A
C1659      C1664   1.398       .  A
C1659      H1665   1.083       .  S
C1660      C1661   1.405       .  A
C1661      C1662   1.397       .  A
C1661      H1666   1.083       .  S
C1662      C1663   1.405       .  A
C1662      H1667   1.083       .  S
C1663      C1664   1.405       .  A
C1664      H1668   1.083       .  S
C1669      C1670   1.405       .  A
C1669      C1674   1.398       .  A
C1669      H1675   1.083       .  S
C1671      C1672   1.398       .  A
C1671      H1676   1.083       .  S
C1672      C1673   1.405   1_655  A
C1672      H1677   1.083       .  S
C1674      H1678   1.083       .  S
C1679      C1680   1.405       .  A
C1679      C1684   1.398       .  A
C1679      H1685   1.083       .  S
C1681      C1682   1.398       .  A
C1681      H1686   1.083       .  S
C1682      C1683   1.405       .  A
C1682      H1687   1.083       .  S
C1684      H1688   1.083       .  S
C1689      C1690   1.405       .  A
C1689      C1694   1.398       .  A
C1689      H1695   1.083       .  S
C1690      C1691   1.405       .  A
C1691      C1692   1.398       .  A
C1691      H1696   1.083       .  S
C1692      C1693   1.405       .  A
C1692      H1697   1.083       .  S
C1693      C1694   1.405       .  A
C1694      H1698   1.083       .  S
C1699      C1700   1.405       .  A
C1699      C1704   1.398       .  A
C1699      H1705   1.083       .  S
C1701      C1702   1.398       .  A
C1701      H1706   1.083       .  S
C1702      H1707   1.083       .  S
C1703      C1704   1.405       .  A
C1704      H1708   1.083       .  S
C1709      C1710   1.405       .  A
C1709      C1714   1.398       .  A
C1709      H1715   1.083       .  S
C1710      C1711   1.405       .  A
C1711      C1712   1.397       .  A
C1711      H1716   1.083       .  S
C1712      C1713   1.405       .  A
C1712      H1717   1.083       .  S
C1713      C1714   1.405       .  A
C1714      H1718   1.083       .  S
C1719      C1720   1.405       .  A
C1719      C1724   1.397       .  A
C1719      H1725   1.083       .  S
C1720      C1721   1.405       .  A
C1721      C1722   1.398       .  A
C1721      H1726   1.083       .  S
C1722      C1723   1.405       .  A
C1722      H1727   1.083       .  S
C1723      C1724   1.405       .  A
C1724      H1728   1.083       .  S
C1729      C1730   1.405       .  A
C1729      C1734   1.398       .  A
C1729      H1735   1.083       .  S
C1731      C1732   1.398       .  A
C1731      H1736   1.083       .  S
C1732      H1737   1.083       .  S
C1733      C1734   1.405       .  A
C1734      H1738   1.083       .  S
C1739      C1744   1.398       .  A
C1739      H1745   1.083       .  S
C1740      C1741   1.405       .  A
C1741      C1742   1.398       .  A
C1741      H1746   1.083       .  S
C1742      H1747   1.083       .  S
C1744      H1748   1.083       .  S
C1749      C1750   1.405   1_655  A
C1749      C1754   1.398       .  A
C1749      H1755   1.083       .  S
C1751      C1752   1.398       .  A
C1751      H1756   1.083       .  S
C1752      H1757   1.083       .  S
C1753      C1754   1.405   1_455  A
C1754      H1758   1.083       .  S
C1759      C1760   1.405       .  A
C1759      C1764   1.398       .  A
C1759      H1765   1.083       .  S
C1761      C1762   1.398       .  A
C1761      H1766   1.083       .  S
C1762      H1767   1.083       .  S
C1763      C1764   1.405       .  A
C1764      H1768   1.083       .  S
C1769      C1770   1.206       .  T
C1771      C1772   1.206       .  T
C1773      C1774   1.206       .  T
C1775      C2368   1.206       .  T
C1776      C2367   1.206       .  T
O1777      C2083   1.263       .  A
O1778      C2084   1.263   1_565  A
O1779      V1785   1.899   1_665  S
O1779      C1789   1.263       .  A
O1780      C1790   1.263       .  A
O1782      V1786   1.899       .  S
C1787      O2073   1.263       .  A
C1787      C2070   1.435       .  S
C1788      O2074   1.263   1_544  A
C1788      C2072   1.435       .  S
C1789      C2140   1.458       .  S
C1790      C2196   1.458       .  S
O1792      C1802   1.263       .  A
O1793      V1799   1.899       .  S
O1793      C1803   1.263       .  A
O1795      C1804   1.263   1_455  A
O1796      V1800   1.899       .  S
O1798      C1801   1.263   1_545  A
C1801      C2065   1.435       .  S
C1802      C2067   1.435       .  S
C1803      C1858   1.458       .  S
C1804      C1914   1.458       .  S
O1806      V1813   1.900       .  S
O1806      C1816   1.263   1_554  A
O1807      V1813   1.900       .  S
O1807      C1817   1.263       .  A
O1808      C1818   1.263   1_554  A
O1809      C2114   1.263       .  A
O1810      V1814   1.899       .  S
O1810      C2113   1.263       .  A
O1812      V1814   1.900       .  S
O1812      C2111   1.263       .  A
V1813      V2110   2.091   1_554  T
V1814      V2109   2.091       .  T
C1815      O2108   1.263   1_554  A
C1815      C2071   1.435       .  S
C1816      C2069   1.435       .  S
C1817      O2106   1.263   1_554  A
C1817      C1928   1.458       .  S
C1818      O2105   1.263       .  A
C1818      C1872   1.458       .  S
O1819      V1827   1.900   1_545  S
O1819      C1829   1.263   1_545  A
O1821      C1831   1.263       .  A
O1822      V1827   1.899       .  S
O1822      C1832   1.263       .  A
O1823      V1828   1.899       .  S
O1823      C1832   1.263       .  A
O1824      C1831   1.263       .  A
O1825      V1828   1.900       .  S
O1825      C1830   1.263       .  A
V1827      V1828   2.091       .  T
C1829      C2068   1.435   1_565  S
C1830      C2066   1.435       .  S
C1831      C1942   1.457       .  S
C1832      C1886   1.457       .  S
O1833      V1841   1.899   1_554  S
O1833      C1843   1.265       .  A
O1834      V2137   1.899       .  S
O1834      C2140   1.263       .  A
O1835      V2137   1.899       .  S
O1835      C1845   1.265   1_655  A
O1836      V1841   1.900   1_554  S
O1836      C1846   1.265       .  A
O1837      V1842   1.899       .  S
O1838      V2138   1.900       .  S
O1839      V1842   1.899       .  S
O1840      V2138   1.899       .  S
V1841      O2130   1.899       .  S
V1841      O2131   1.899       .  S
V1842      O2134   1.900   1_554  S
V1842      O2136   1.899   1_554  S
C1843      C2036   1.479       .  S
C1844      O2130   1.263   1_554  A
C1844      C2085   1.458       .  S
C1845      C2046   1.479       .  S
C1846      C2056   1.479       .  S
O1847      V1855   1.899       .  S
O1848      V1855   1.899       .  S
O1849      V1855   1.900       .  S
O1850      V1855   1.899       .  S
O1851      V1856   1.900       .  S
O1851      C1860   1.265       .  A
O1852      V1856   1.899       .  S
O1852      C1859   1.265   1_655  A
O1853      V1856   1.899       .  S
O1853      C1858   1.263       .  A
O1854      V1856   1.899       .  S
O1854      C1857   1.265       .  A
C1857      C2026   1.479       .  S
C1859      C2049   1.480       .  S
C1860      C2059   1.479       .  S
O1861      V1869   1.899       .  S
O1861      C1871   1.265       .  A
O1862      V2165   1.899       .  S
O1862      C2168   1.263       .  A
O1863      V2165   1.900       .  S
O1863      C1873   1.265       .  A
O1864      V1869   1.899       .  S
O1864      C1874   1.265       .  A
O1865      V1870   1.900   1_554  S
O1865      C1874   1.265       .  A
O1866      V2166   1.899       .  S
O1866      C1873   1.265       .  A
O1867      V1870   1.899   1_554  S
O1867      C1872   1.263   1_554  A
O1868      V2166   1.899       .  S
O1868      C2167   1.265       .  A
V1869      O2158   1.899   1_554  S
V1869      O2159   1.900   1_554  S
V1869      V1870   2.087   1_554  T
V1870      O2162   1.899       .  S
V1870      O2164   1.899       .  S
C1871      O2164   1.265   1_554  A
C1871      C1996   1.479       .  S
C1872      O2158   1.263       .  A
C1873      C2006   1.479       .  S
C1874      C2016   1.479       .  S
O1875      V1883   1.899       .  S
O1875      C1885   1.265       .  A
O1876      V1883   1.899       .  S
O1876      C1886   1.263       .  A
O1877      V1883   1.899       .  S
O1877      C1887   1.265       .  A
O1878      V1883   1.900       .  S
O1878      C1888   1.265       .  A
O1879      V1884   1.899       .  S
O1879      C1888   1.265       .  A
O1880      V1884   1.900       .  S
O1880      C1887   1.265       .  A
O1881      V1884   1.899       .  S
O1881      C1886   1.263       .  A
O1882      V1884   1.899       .  S
O1882      C1885   1.265       .  A
V1883      V1884   2.087       .  T
C1885      C1986   1.480       .  S
C1887      C2009   1.480       .  S
C1888      C2019   1.480       .  S
O1889      V2193   1.899       .  S
O1890      V1897   1.899   1_554  S
O1891      V1897   1.900   1_554  S
O1892      V2193   1.899       .  S
O1893      V2194   1.900       .  S
O1893      C1902   1.265       .  A
O1894      V1898   1.899       .  S
O1894      C1901   1.265       .  A
O1895      V2194   1.899       .  S
O1895      C2196   1.263       .  A
O1896      V1898   1.899       .  S
O1896      C1899   1.265       .  A
V1897      O2185   1.899       .  S
V1897      O2188   1.899       .  S
V1898      O2189   1.900   1_554  S
V1898      O2191   1.899       .  S
C1899      C2039   1.479       .  S
C1900      O2191   1.263       .  A
C1900      C2086   1.458       .  S
C1901      C1976   1.480       .  S
C1902      C1966   1.479       .  S
O1903      V1911   1.899       .  S
O1904      V1911   1.899       .  S
O1905      V1911   1.899       .  S
O1906      V1911   1.899       .  S
O1907      V1912   1.899       .  S
O1907      C1916   1.265   1_655  A
O1908      V1912   1.899       .  S
O1908      C1915   1.265       .  A
O1909      V1912   1.899       .  S
O1909      C1914   1.263       .  A
O1910      V1912   1.899       .  S
O1910      C1913   1.265       .  A
C1913      C2029   1.479       .  S
C1915      C1979   1.480       .  S
C1916      C1969   1.480       .  S
O1917      V2221   1.899       .  S
O1917      C2223   1.265       .  A
O1918      V1925   1.899       .  S
O1918      C1928   1.263       .  A
O1919      V1925   1.899       .  S
O1919      C1929   1.265       .  A
O1920      V2221   1.900       .  S
O1920      C1930   1.265       .  A
O1921      V2222   1.899       .  S
O1921      C1930   1.265       .  A
O1922      V1926   1.900   1_554  S
O1922      C1929   1.265       .  A
O1923      V2222   1.899       .  S
O1923      C2224   1.263       .  A
O1924      V1926   1.899       .  S
O1924      C1927   1.265   1_556  A
V1925      O2213   1.899       .  S
V1925      O2216   1.900   1_554  S
V1925      V1926   2.087   1_554  T
V1926      O2217   1.899       .  S
V1926      O2219   1.899   1_556  S
C1927      O2213   1.265       .  A
C1927      C1999   1.479   1_554  S
C1928      O2219   1.263       .  A
C1929      C1956   1.479       .  S
C1930      C1946   1.479       .  S
O1931      V1939   1.899       .  S
O1931      C1941   1.265       .  A
O1932      V1939   1.899       .  S
O1932      C1942   1.263       .  A
O1933      V1939   1.900       .  S
O1933      C1943   1.265       .  A
O1934      V1939   1.899       .  S
O1934      C1944   1.265       .  A
O1935      V1940   1.900       .  S
O1935      C1944   1.265       .  A
O1936      V1940   1.899       .  S
O1936      C1943   1.265       .  A
O1937      V1940   1.899       .  S
O1937      C1942   1.263       .  A
O1938      V1940   1.899       .  S
O1938      C1941   1.265       .  A
V1939      V1940   2.087       .  T
C1941      C1989   1.480       .  S
C1943      C1959   1.480       .  S
C1944      C1949   1.480       .  S
C1945      C1946   1.405       .  A
C1945      C1950   1.397       .  A
C1945      H1951   1.083       .  S
C1946      C1947   1.405       .  A
C1947      C1948   1.398       .  A
C1947      H1952   1.083       .  S
C1948      C1949   1.405       .  A
C1948      H1953   1.083       .  S
C1949      C1950   1.405       .  A
C1950      H1954   1.083       .  S
C1955      C1956   1.405       .  A
C1955      C1960   1.398       .  A
C1955      H1961   1.083       .  S
C1956      C1957   1.405       .  A
C1957      C1958   1.397       .  A
C1957      H1962   1.083       .  S
C1958      C1959   1.405       .  A
C1958      H1963   1.083       .  S
C1959      C1960   1.405       .  A
C1960      H1964   1.083       .  S
C1965      C1966   1.405       .  A
C1965      C1970   1.398       .  A
C1965      H1971   1.083       .  S
C1967      C1968   1.398       .  A
C1967      H1972   1.083       .  S
C1968      C1969   1.405   1_655  A
C1968      H1973   1.083       .  S
C1970      H1974   1.083       .  S
C1975      C1976   1.405       .  A
C1975      C1980   1.398       .  A
C1975      H1981   1.083       .  S
C1977      C1978   1.398       .  A
C1977      H1982   1.083       .  S
C1978      C1979   1.405       .  A
C1978      H1983   1.083       .  S
C1980      H1984   1.083       .  S
C1985      C1986   1.405       .  A
C1985      C1990   1.398       .  A
C1985      H1991   1.083       .  S
C1986      C1987   1.405       .  A
C1987      C1988   1.398       .  A
C1987      H1992   1.083       .  S
C1988      C1989   1.405       .  A
C1988      H1993   1.083       .  S
C1989      C1990   1.405       .  A
C1990      H1994   1.083       .  S
C1995      C1996   1.405   1_556  A
C1995      C2000   1.398       .  A
C1995      H2001   1.083       .  S
C1996      C2293   1.405       .  A
C1997      C2292   1.405       .  A
C1997      C1998   1.398       .  A
C1997      H2002   1.083       .  S
C1998      C2295   1.405       .  A
C1998      H2003   1.083       .  S
C1999      C2294   1.405   1_556  A
C1999      C2000   1.405       .  A
C2000      H2004   1.083       .  S
C2005      C2006   1.405       .  A
C2005      C2010   1.398       .  A
C2005      H2011   1.083       .  S
C2006      C2007   1.405       .  A
C2007      C2008   1.397       .  A
C2007      H2012   1.083       .  S
C2008      C2009   1.405       .  A
C2008      H2013   1.083       .  S
C2009      C2010   1.405       .  A
C2010      H2014   1.083       .  S
C2015      C2016   1.405       .  A
C2015      C2020   1.397       .  A
C2015      H2021   1.083       .  S
C2016      C2017   1.405       .  A
C2017      C2018   1.398       .  A
C2017      H2022   1.083       .  S
C2018      C2019   1.405       .  A
C2018      H2023   1.083       .  S
C2019      C2020   1.405       .  A
C2020      H2024   1.083       .  S
C2025      C2026   1.405       .  A
C2025      C2030   1.398       .  A
C2025      H2031   1.083       .  S
C2027      C2028   1.398       .  A
C2027      H2032   1.083       .  S
C2028      H2033   1.083       .  S
C2029      C2030   1.405       .  A
C2030      H2034   1.083       .  S
C2035      C2040   1.398       .  A
C2035      H2041   1.083       .  S
C2036      C2037   1.405   1_554  A
C2037      C2038   1.398       .  A
C2037      H2042   1.083       .  S
C2038      H2043   1.083       .  S
C2039      C2336   1.405       .  A
C2040      C2335   1.405       .  A
C2040      H2044   1.083       .  S
C2045      C2046   1.405   1_655  A
C2045      C2050   1.398       .  A
C2045      H2051   1.083       .  S
C2047      C2048   1.398       .  A
C2047      H2052   1.083       .  S
C2048      H2053   1.083       .  S
C2049      C2050   1.405   1_455  A
C2050      H2054   1.083       .  S
C2055      C2056   1.405       .  A
C2055      C2060   1.398       .  A
C2055      H2061   1.083       .  S
C2057      C2058   1.398       .  A
C2057      H2062   1.083       .  S
C2058      H2063   1.083       .  S
C2059      C2060   1.405       .  A
C2060      H2064   1.083       .  S
C2065      C2066   1.206       .  T
C2067      C2068   1.206       .  T
C2069      C2070   1.206       .  T
O2075      V2081   1.899   1_665  S
O2075      C2085   1.263   1_556  A
O2076      C2086   1.263   1_556  A
O2078      V2082   1.899       .  S
C2083      C2366   1.435       .  S
C2084      C2368   1.435       .  S
O2088      C2098   1.263       .  A
O2089      V2095   1.899       .  S
O2089      C2099   1.263       .  A
O2091      C2100   1.263   1_455  A
O2092      V2096   1.899       .  S
O2094      C2097   1.263   1_545  A
C2097      C2361   1.435       .  S
C2098      C2363   1.435       .  S
C2099      C2154   1.458       .  S
C2100      C2210   1.458       .  S
O2102      V2109   1.900       .  S
O2102      C2112   1.263       .  A
O2103      V2109   1.900       .  S
O2103      C2113   1.263       .  A
O2104      C2114   1.263       .  A
O2106      V2110   1.899       .  S
O2108      V2110   1.900       .  S
C2111      C2367   1.435       .  S
C2112      C2365   1.435       .  S
C2113      C2224   1.458       .  S
C2114      C2168   1.458       .  S
O2115      V2123   1.900   1_545  S
O2115      C2125   1.263   1_545  A
O2117      C2127   1.263       .  A
O2118      V2123   1.899       .  S
O2118      C2128   1.263       .  A
O2119      V2124   1.899       .  S
O2119      C2128   1.263       .  A
O2120      C2127   1.263       .  A
O2121      V2124   1.900       .  S
O2121      C2126   1.263       .  A
V2123      V2124   2.091       .  T
C2125      C2364   1.435   1_565  S
C2126      C2362   1.435       .  S
C2127      C2238   1.457       .  S
C2128      C2182   1.457       .  S
O2129      V2137   1.899       .  S
O2129      C2139   1.265       .  A
O2131      C2141   1.265   1_655  A
O2132      V2137   1.900       .  S
O2132      C2142   1.265       .  A
O2133      V2138   1.899       .  S
O2135      V2138   1.899       .  S
C2139      C2332   1.479       .  S
C2141      C2342   1.479       .  S
C2142      C2352   1.479       .  S
O2143      V2151   1.899       .  S
O2144      V2151   1.899       .  S
O2145      V2151   1.900       .  S
O2146      V2151   1.899       .  S
O2147      V2152   1.900       .  S
O2147      C2156   1.265       .  A
O2148      V2152   1.899       .  S
O2148      C2155   1.265   1_655  A
O2149      V2152   1.899       .  S
O2149      C2154   1.263       .  A
O2150      V2152   1.899       .  S
O2150      C2153   1.265       .  A
C2153      C2322   1.479       .  S
C2155      C2345   1.480       .  S
C2156      C2355   1.479       .  S
O2157      V2165   1.899       .  S
O2157      C2167   1.265       .  A
O2159      C2169   1.265       .  A
O2160      V2165   1.899       .  S
O2160      C2170   1.265       .  A
O2161      V2166   1.900       .  S
O2161      C2170   1.265       .  A
O2162      C2169   1.265       .  A
O2163      V2166   1.899       .  S
O2163      C2168   1.263       .  A
V2165      V2166   2.087       .  T
C2167      C2292   1.479       .  S
C2169      C2302   1.479       .  S
C2170      C2312   1.479       .  S
O2171      V2179   1.899       .  S
O2171      C2181   1.265       .  A
O2172      V2179   1.899       .  S
O2172      C2182   1.263       .  A
O2173      V2179   1.899       .  S
O2173      C2183   1.265       .  A
O2174      V2179   1.900       .  S
O2174      C2184   1.265       .  A
O2175      V2180   1.899       .  S
O2175      C2184   1.265       .  A
O2176      V2180   1.900       .  S
O2176      C2183   1.265       .  A
O2177      V2180   1.899       .  S
O2177      C2182   1.263       .  A
O2178      V2180   1.899       .  S
O2178      C2181   1.265       .  A
V2179      V2180   2.087       .  T
C2181      C2282   1.480       .  S
C2183      C2305   1.480       .  S
C2184      C2315   1.480       .  S
O2186      V2193   1.899       .  S
O2187      V2193   1.900       .  S
O2189      C2198   1.265       .  A
O2190      V2194   1.899       .  S
O2190      C2197   1.265       .  A
O2192      V2194   1.899       .  S
O2192      C2195   1.265       .  A
C2195      C2335   1.479       .  S
C2197      C2272   1.480       .  S
C2198      C2262   1.479       .  S
O2199      V2207   1.899       .  S
O2200      V2207   1.899       .  S
O2201      V2207   1.899       .  S
O2202      V2207   1.899       .  S
O2203      V2208   1.899       .  S
O2203      C2212   1.265   1_655  A
O2204      V2208   1.899       .  S
O2204      C2211   1.265       .  A
O2205      V2208   1.899       .  S
O2205      C2210   1.263       .  A
O2206      V2208   1.899       .  S
O2206      C2209   1.265       .  A
C2209      C2325   1.479       .  S
C2211      C2275   1.480       .  S
C2212      C2265   1.480       .  S
O2214      V2221   1.899       .  S
O2214      C2224   1.263       .  A
O2215      V2221   1.899       .  S
O2215      C2225   1.265       .  A
O2216      C2226   1.265       .  A
O2217      C2226   1.265       .  A
O2218      V2222   1.900       .  S
O2218      C2225   1.265       .  A
O2220      V2222   1.899       .  S
O2220      C2223   1.265       .  A
V2221      V2222   2.087       .  T
C2223      C2295   1.479       .  S
C2225      C2252   1.479       .  S
C2226      C2242   1.479       .  S
O2227      V2235   1.899       .  S
O2227      C2237   1.265       .  A
O2228      V2235   1.899       .  S
O2228      C2238   1.263       .  A
O2229      V2235   1.900       .  S
O2229      C2239   1.265       .  A
O2230      V2235   1.899       .  S
O2230      C2240   1.265       .  A
O2231      V2236   1.900       .  S
O2231      C2240   1.265       .  A
O2232      V2236   1.899       .  S
O2232      C2239   1.265       .  A
O2233      V2236   1.899       .  S
O2233      C2238   1.263       .  A
O2234      V2236   1.899       .  S
O2234      C2237   1.265       .  A
V2235      V2236   2.087       .  T
C2237      C2285   1.480       .  S
C2239      C2255   1.480       .  S
C2240      C2245   1.480       .  S
C2241      C2242   1.405       .  A
C2241      C2246   1.397       .  A
C2241      H2247   1.083       .  S
C2242      C2243   1.405       .  A
C2243      C2244   1.398       .  A
C2243      H2248   1.083       .  S
C2244      C2245   1.405       .  A
C2244      H2249   1.083       .  S
C2245      C2246   1.405       .  A
C2246      H2250   1.083       .  S
C2251      C2252   1.405       .  A
C2251      C2256   1.398       .  A
C2251      H2257   1.083       .  S
C2252      C2253   1.405       .  A
C2253      C2254   1.397       .  A
C2253      H2258   1.083       .  S
C2254      C2255   1.405       .  A
C2254      H2259   1.083       .  S
C2255      C2256   1.405       .  A
C2256      H2260   1.083       .  S
C2261      C2262   1.405       .  A
C2261      C2266   1.398       .  A
C2261      H2267   1.083       .  S
C2263      C2264   1.398       .  A
C2263      H2268   1.083       .  S
C2264      C2265   1.405   1_655  A
C2264      H2269   1.083       .  S
C2266      H2270   1.083       .  S
C2271      C2272   1.405       .  A
C2271      C2276   1.398       .  A
C2271      H2277   1.083       .  S
C2273      C2274   1.398       .  A
C2273      H2278   1.083       .  S
C2274      C2275   1.405       .  A
C2274      H2279   1.083       .  S
C2276      H2280   1.083       .  S
C2281      C2282   1.405       .  A
C2281      C2286   1.398       .  A
C2281      H2287   1.083       .  S
C2282      C2283   1.405       .  A
C2283      C2284   1.398       .  A
C2283      H2288   1.083       .  S
C2284      C2285   1.405       .  A
C2284      H2289   1.083       .  S
C2285      C2286   1.405       .  A
C2286      H2290   1.083       .  S
C2291      C2292   1.405       .  A
C2291      C2296   1.398       .  A
C2291      H2297   1.083       .  S
C2293      C2294   1.398       .  A
C2293      H2298   1.083       .  S
C2294      H2299   1.083       .  S
C2295      C2296   1.405       .  A
C2296      H2300   1.083       .  S
C2301      C2302   1.405       .  A
C2301      C2306   1.398       .  A
C2301      H2307   1.083       .  S
C2302      C2303   1.405       .  A
C2303      C2304   1.397       .  A
C2303      H2308   1.083       .  S
C2304      C2305   1.405       .  A
C2304      H2309   1.083       .  S
C2305      C2306   1.405       .  A
C2306      H2310   1.083       .  S
C2311      C2312   1.405       .  A
C2311      C2316   1.397       .  A
C2311      H2317   1.083       .  S
C2312      C2313   1.405       .  A
C2313      C2314   1.398       .  A
C2313      H2318   1.083       .  S
C2314      C2315   1.405       .  A
C2314      H2319   1.083       .  S
C2315      C2316   1.405       .  A
C2316      H2320   1.083       .  S
C2321      C2322   1.405       .  A
C2321      C2326   1.398       .  A
C2321      H2327   1.083       .  S
C2323      C2324   1.398       .  A
C2323      H2328   1.083       .  S
C2324      H2329   1.083       .  S
C2325      C2326   1.405       .  A
C2326      H2330   1.083       .  S
C2331      C2336   1.398       .  A
C2331      H2337   1.083       .  S
C2332      C2333   1.405       .  A
C2333      C2334   1.398       .  A
C2333      H2338   1.083       .  S
C2334      H2339   1.083       .  S
C2336      H2340   1.083       .  S
C2341      C2342   1.405   1_655  A
C2341      C2346   1.398       .  A
C2341      H2347   1.083       .  S
C2343      C2344   1.398       .  A
C2343      H2348   1.083       .  S
C2344      H2349   1.083       .  S
C2345      C2346   1.405   1_455  A
C2346      H2350   1.083       .  S
C2351      C2352   1.405       .  A
C2351      C2356   1.398       .  A
C2351      H2357   1.083       .  S
C2353      C2354   1.398       .  A
C2353      H2358   1.083       .  S
C2354      H2359   1.083       .  S
C2355      C2356   1.405       .  A
C2356      H2360   1.083       .  S
C2361      C2362   1.206       .  T
C2363      C2364   1.206       .  T
C2365      C2366   1.206       .  T
