geometry optimzed in LAMMPS
_audit_creation_date              2020-11-30 
_audit_creation_method            'lammps2cif' 
_symmetry_space_group_name_H-M    'P1' 
_symmetry_Int_Tables_number       1 
_symmetry_cell_setting            triclinic 
loop_ 
_symmetry_equiv_pos_as_xyz 
  x,y,z 
_cell_length_a                    25.90371111 
_cell_length_b                    26.022205046513655 
_cell_length_c                    26.07014694422014 
_cell_angle_alpha                 89.47504927386221 
_cell_angle_beta                  89.61569046972006 
_cell_angle_gamma                 89.61713828418826 
loop_ 
_atom_site_label 
_atom_site_type_symbol 
_atom_site_fract_x 
_atom_site_fract_y 
_atom_site_fract_z 
_atom_site_charge 
C1          C  0.86616332  0.87105300  0.86246210    -0.03400
N2          N  0.77127923  0.93068741  0.40861716    -0.07000
N3          N  0.73187136  0.94321976  0.43926228    -0.59100
N4          N  0.82692080  0.96529092  0.29760731    -0.06700
N5          N  0.82991367  0.99698313  0.25843886    -0.61200
N6          N  0.79184447  0.93005970  0.29036764    -0.06300
N7          N  0.77037089  0.93671612  0.24547609    -0.59100
N8          N  0.80822709  0.96462480  0.41338753    -0.05900
N9          N  0.79465644  0.00079980  0.44643108    -0.61600
C10         C  0.74691262  0.98722955  0.46293276     0.95200
C11         C  0.79453659  0.97859748  0.22623032     0.95000
N12         N  0.97901434  0.93250466  0.31072298    -0.07200
N13         N  0.01715165  0.94564367  0.27917059    -0.59700
N14         N  0.92782767  0.95364700  0.42481755    -0.05300
N15         N  0.93648329  0.98747603  0.46023033    -0.60900
N16         N  0.96357508  0.91754615  0.42521443    -0.07200
N17         N  0.99767303  0.92576353  0.46081863    -0.60000
N18         N  0.94274342  0.96778872  0.31013115    -0.04900
N19         N  0.95489565  0.00540822  0.27803129    -0.61000
Mn20       Mn  0.87612993  0.96408871  0.36210229     1.18400
C21         C  0.00130386  0.99118610  0.25862759     0.97300
C22         C  0.97964769  0.96909051  0.48190691     0.97900
N23         N  0.77975868  0.80926695  0.28643794    -0.07200
N24         N  0.74238817  0.79635622  0.25444425    -0.63500
N25         N  0.80962478  0.77110855  0.40305922    -0.06000
N26         N  0.79677494  0.73537333  0.43635296    -0.64200
N27         N  0.77435758  0.80791539  0.40184575    -0.06700
N28         N  0.73679119  0.79836785  0.43433251    -0.63800
N29         N  0.81497803  0.77261932  0.28816279    -0.05600
N30         N  0.80195258  0.73424899  0.25781160    -0.64500
Mn31       Mn  0.77740604  0.87001856  0.34675286     1.10700
C32         C  0.75706740  0.74977815  0.23607467     0.98500
C33         C  0.75159395  0.75326399  0.45498156     0.98600
N34         N  0.96936539  0.79876414  0.41562089    -0.06700
N35         N  0.00489174  0.78427044  0.44910126    -0.62100
N36         N  0.93541663  0.78216698  0.29346656    -0.06100
N37         N  0.93901132  0.76313382  0.24727798    -0.58800
N38         N  0.97168468  0.81637400  0.30003926    -0.07400
N39         N  0.00089909  0.82109654  0.25919395    -0.61700
N40         N  0.93347633  0.76357299  0.41178464    -0.06400
N41         N  0.94407829  0.72438353  0.44325253    -0.58900
Mn42       Mn  0.97251668  0.86578705  0.36343128     1.20200
Mn43       Mn  0.87397221  0.77024893  0.34942467     1.10100
Cl44       Cl  0.87467603  0.86720358  0.35613367    -0.86800
C45         C  0.98877568  0.73796212  0.46670200     0.95500
C46         C  0.98019056  0.78757556  0.22665613     0.95300
N47         N  0.96078646  0.42115417  0.92893684    -0.07000
N48         N  0.00051168  0.44748863  0.94409363    -0.59100
N49         N  0.93211363  0.30401952  0.96422876    -0.06700
N50         N  0.94567933  0.27082685  0.00058474    -0.61200
N51         N  0.96772897  0.30614642  0.92820099    -0.06300
N52         N  0.00639725  0.27446996  0.93943716    -0.59100
N53         N  0.92534078  0.41886209  0.96524585    -0.05900
N54         N  0.93996001  0.44362974  0.00607276    -0.61600
C55         C  0.98665800  0.46059305  0.99183477     0.95200
C56         C  0.99169471  0.25192239  0.98426113     0.95000
N57         N  0.77899642  0.29896540  0.92430992    -0.07200
N58         N  0.75378287  0.25571799  0.92802637    -0.59700
N59         N  0.80393988  0.41766779  0.96788397    -0.05300
N60         N  0.79404208  0.45283843  0.00315705    -0.60900
N61         N  0.76766890  0.41810234  0.93279262    -0.07200
N62         N  0.73290010  0.45438693  0.94324606    -0.60000
N63         N  0.81478847  0.30068059  0.95948574    -0.04900
N64         N  0.81477426  0.25927694  0.98812380    -0.61000
Mn65       Mn  0.86822922  0.36073139  0.96547638     1.18400
C66         C  0.77645459  0.23183819  0.96823920     0.97300
C67         C  0.74983847  0.47608472  0.98726194     0.97900
N68         N  0.96164246  0.31058890  0.80987894    -0.07200
N69         N  0.99503884  0.27316830  0.80422611    -0.63500
N70         N  0.92608054  0.42723466  0.77140926    -0.06000
N71         N  0.93745536  0.46121991  0.73476646    -0.64200
N72         N  0.96186949  0.42754724  0.80705060    -0.06700
N73         N  0.99814709  0.46142178  0.79501963    -0.63800
N74         N  0.92531928  0.30882518  0.77508700    -0.05600
N75         N  0.93287299  0.26946079  0.74496273    -0.64500
Mn76       Mn  0.96400789  0.36693185  0.86799271     1.10700
C77         C  0.97596603  0.24764246  0.76435972     0.98500
C78         C  0.98209204  0.48313000  0.75033362     0.98600
N79         N  0.76833063  0.42128478  0.81353958    -0.06700
N80         N  0.73552869  0.45972134  0.80964471    -0.62100
N81         N  0.80382735  0.30517905  0.76922083    -0.06100
N82         N  0.79354142  0.27125644  0.73278225    -0.58800
N83         N  0.76783089  0.30361317  0.80497876    -0.07400
N84         N  0.73224429  0.26915566  0.79314843    -0.61700
N85         N  0.80469077  0.42452615  0.77832640    -0.06400
N86         N  0.79808554  0.46591880  0.75009962    -0.58900
Mn87       Mn  0.76837808  0.36028158  0.86927640     1.20200
Mn88       Mn  0.86495015  0.36648192  0.77138401     1.10100
Cl89       Cl  0.86634455  0.36418735  0.86832794    -0.86800
C90         C  0.75534971  0.48751437  0.77060449     0.95500
C91         C  0.74873094  0.24844987  0.74810894     0.95300
N92         N  0.41134871  0.76393486  0.93510582    -0.07000
N93         N  0.44311319  0.72568512  0.94744801    -0.59100
N94         N  0.29706959  0.81844722  0.95959810    -0.06700
N95         N  0.25533896  0.82097050  0.98792042    -0.61200
N96         N  0.29337293  0.78287665  0.92460723    -0.06300
N97         N  0.24844615  0.76031660  0.92827654    -0.59100
N98         N  0.41369464  0.80023781  0.96958613    -0.05900
N99         N  0.44693758  0.78745048  0.00603286    -0.61600
C100        C  0.46540045  0.74072176  0.99184828     0.95200
C101        C  0.22550559  0.78431371  0.96826094     0.95000
N102        N  0.31387848  0.96990541  0.92809060    -0.07200
N103        N  0.28197617  0.00870074  0.93785861    -0.59700
N104        N  0.42441467  0.91925349  0.96369288    -0.05300
N105        N  0.45217229  0.93119369  0.00354060    -0.60900
N106        N  0.42902016  0.95401093  0.92700097    -0.07200
N107        N  0.45977290  0.99063342  0.94080334    -0.60000
N108        N  0.30905587  0.93393910  0.96326485    -0.04900
N109        N  0.27361280  0.94702232  0.99741826    -0.61000
Mn110      Mn  0.36144442  0.86742700  0.96543021     1.18400
C111        C  0.25658811  0.99359357  0.98107513     0.97300
C112        C  0.47337762  0.97546497  0.98797801     0.97900
N113        N  0.30054629  0.77092487  0.80597341    -0.07200
N114        N  0.26655706  0.73512403  0.79422856    -0.63500
N115        N  0.42288816  0.80427753  0.78029293    -0.06000
N116        N  0.46725462  0.79983791  0.75631163    -0.64200
N117        N  0.41841714  0.76833771  0.81584247    -0.06700
N118        N  0.45914941  0.73807696  0.81608292    -0.63800
N119        N  0.30327799  0.80590939  0.76939933    -0.05600
N120        N  0.27052994  0.79433960  0.73207801    -0.64500
Mn121      Mn  0.35561171  0.76923946  0.87047776     1.10700
C122        C  0.24734941  0.75003230  0.74819115     0.98500
C123        C  0.48944378  0.75876789  0.77927743     0.98600
N124        N  0.43297944  0.95893453  0.80610377    -0.06700
N125        N  0.46791577  0.99408858  0.79379486    -0.62100
N126        N  0.31033855  0.92785054  0.77695520    -0.06100
N127        N  0.26649623  0.93442466  0.75283469    -0.58800
N128        N  0.31564803  0.96360113  0.81170607    -0.07400
N129        N  0.27624952  0.99508095  0.81234082    -0.61700
N130        N  0.42971819  0.92446774  0.76971457    -0.06400
N131        N  0.46274841  0.93572677  0.73203438    -0.58900
Mn132      Mn  0.37377278  0.96276268  0.86773180     1.20200
Mn133      Mn  0.36632999  0.86555180  0.77134705     1.10100
Cl134      Cl  0.36471267  0.86615437  0.86850962    -0.86800
C135        C  0.48721943  0.97881792  0.74790409     0.95500
C136        C  0.24584697  0.97610505  0.77608856     0.95300
C137        C  0.36709730  0.37244925  0.87201273    -0.03400
C138        C  0.37347724  0.87888650  0.36831906    -0.03400
C139        C  0.87352272  0.37378972  0.36898851    -0.03400
N140        N  0.20717576  0.06164710  0.68836039    -0.07000
N141        N  0.23392373  0.05339028  0.72992673    -0.59100
N142        N  0.18975532  0.02301924  0.56656297    -0.06700
N143        N  0.20169908  0.99008837  0.52985105    -0.61200
N144        N  0.22665594  0.05694341  0.57164833    -0.06300
N145        N  0.26458319  0.04756847  0.53850793    -0.59100
N146        N  0.17278112  0.02546372  0.68267625    -0.05900
N147        N  0.17556573  0.99124387  0.71960907    -0.61600
C148        C  0.21338439  0.00965461  0.74882265     0.95200
C149        C  0.24844617  0.00583932  0.51227563     0.95000
N150        N  0.03402103  0.06213785  0.55379810    -0.07200
N151        N  0.99595693  0.04783936  0.52489154    -0.59700
N152        N  0.05511382  0.02202018  0.67188986    -0.05300
N153        N  0.04142926  0.98589013  0.70530427    -0.60900
N154        N  0.01885005  0.05735022  0.66814682    -0.07200
N155        N  0.97932226  0.04547193  0.69854932    -0.60000
N156        N  0.06943792  0.02582345  0.55713838    -0.04900
N157        N  0.05637503  0.98570416  0.53045205    -0.61000
Mn158      Mn  0.12233357  0.02282664  0.61919495     1.18400
C159        C  0.01079657  0.00059986  0.51129943     0.97300
C160        C  0.99403481  0.00089257  0.72196214     0.97900
N161        N  0.22389305  0.17496630  0.57002313    -0.07200
N162        N  0.25773759  0.17683871  0.53248495    -0.63500
N163        N  0.18115512  0.21867181  0.68174591    -0.06000
N164        N  0.19110241  0.25690607  0.71354370    -0.64200
N165        N  0.21612055  0.18215466  0.68683396    -0.06700
N166        N  0.25031496  0.19491678  0.72219376    -0.63800
N167        N  0.18739484  0.20971969  0.56384982    -0.05600
N168        N  0.19507692  0.23570833  0.52130951    -0.64500
Mn169      Mn  0.22044345  0.11879790  0.63000076     1.10700
C170        C  0.23858077  0.21423071  0.50227893     0.98500
C171        C  0.23382025  0.24131953  0.73949865     0.98600
N172        N  0.02438261  0.17663266  0.66767625    -0.06700
N173        N  0.99013065  0.17999443  0.70457804    -0.62100
N174        N  0.06632110  0.21818399  0.55392516    -0.06100
N175        N  0.05642110  0.25566761  0.52038408    -0.58800
N176        N  0.03082741  0.18245610  0.55099847    -0.07400
N177        N  0.99639150  0.19500574  0.51552542    -0.61700
N178        N  0.06043874  0.21150971  0.67213379    -0.06400
N179        N  0.05202923  0.23918158  0.71305376    -0.58900
Mn180      Mn  0.02587608  0.12014397  0.60972164     1.20200
Mn181      Mn  0.12379640  0.21681659  0.61780490     1.10100
Cl182      Cl  0.12312002  0.11980568  0.61904378    -0.86800
C183        C  0.00856121  0.21841091  0.73270869     0.95500
C184        C  0.01325775  0.24026336  0.49563920     0.95300
N185        N  0.05894669  0.69209336  0.19976485    -0.07000
N186        N  0.05540689  0.73822515  0.21889827    -0.59100
N187        N  0.02457370  0.56873498  0.18510405    -0.06700
N188        N  0.99119967  0.53264982  0.19825645    -0.61200
N189        N  0.05953017  0.57408447  0.22091782    -0.06300
N190        N  0.04987443  0.54168528  0.25961275    -0.59100
N191        N  0.02233492  0.68521135  0.16603423    -0.05900
N192        N  0.99271927  0.72593339  0.16200172    -0.61600
C193        C  0.01350896  0.75846350  0.19556310     0.95200
C194        C  0.00717562  0.51550437  0.24470768     0.95000
N195        N  0.06343290  0.55621893  0.03133086    -0.07200
N196        N  0.05778642  0.51697939  0.00115862    -0.59700
N197        N  0.01254415  0.67241681  0.05004743    -0.05300
N198        N  0.97417245  0.70377379  0.03681088    -0.60900
N199        N  0.04765440  0.67125940  0.01370450    -0.07200
N200        N  0.03391649  0.70139638  0.97481117    -0.60000
N201        N  0.02775501  0.55671255  0.06727216    -0.04900
N202        N  0.99647593  0.51780814  0.06260697    -0.61000
Mn203      Mn  0.02004774  0.62041607  0.11777502     1.18400
C204        C  0.01629202  0.49372936  0.02151728     0.97300
C205        C  0.98789807  0.72181988  0.98957424     0.97900
N206        N  0.18208527  0.58162321  0.21425699    -0.07200
N207        N  0.19171626  0.54644628  0.24914291    -0.63500
N208        N  0.21475758  0.69765536  0.17438890    -0.06000
N209        N  0.25288049  0.72894140  0.18749860    -0.64200
N210        N  0.17932744  0.69707054  0.21080108    -0.06700
N211        N  0.19292469  0.72751816  0.24898395    -0.63800
N212        N  0.21760919  0.58124349  0.17780943    -0.05600
N213        N  0.25241834  0.54561912  0.18686842    -0.64500
Mn214      Mn  0.11925387  0.63618045  0.21349184     1.10700
C215        C  0.23538691  0.52485157  0.23121499     0.98500
C216        C  0.23881369  0.74792776  0.23417258     0.98600
N217        N  0.16477938  0.68261316  0.01767139    -0.06700
N218        N  0.16183126  0.72099703  0.98504299    -0.62100
N219        N  0.21909005  0.57196308  0.05523409    -0.06100
N220        N  0.25719723  0.53942429  0.04331970    -0.58800
N221        N  0.18161501  0.56738146  0.02185118    -0.07400
N222        N  0.19333979  0.53273700  0.98686624    -0.61700
N223        N  0.20010158  0.69048307  0.05260598    -0.06400
N224        N  0.22155113  0.73525115  0.04478572    -0.58900
Mn225      Mn  0.11481019  0.61895744  0.01988858     1.20200
Mn226      Mn  0.21521449  0.63550089  0.11431901     1.10100
Cl227      Cl  0.11774930  0.62722765  0.11667665    -0.86800
C228        C  0.19708087  0.75361988  0.00275310     0.95500
C229        C  0.24041306  0.51504604  0.00040789     0.95300
N230        N  0.67192351  0.05668277  0.01212842    -0.07000
N231        N  0.70313036  0.04765431  0.97272597    -0.59100
N232        N  0.56166604  0.02539202  0.06788343    -0.06700
N233        N  0.52839511  0.98871344  0.06026080    -0.61200
N234        N  0.55667030  0.06216940  0.03343962    -0.06300
N235        N  0.51998062  0.05190167  0.00140982    -0.59100
N236        N  0.67772961  0.02121829  0.04770281    -0.05900
N237        N  0.71342344  0.98740836  0.03348988    -0.61600
C238        C  0.72937954  0.00467777  0.98680623     0.95200
C239        C  0.50308489  0.00658164  0.01905876     0.95000
N240        N  0.58167144  0.05559309  0.22115637    -0.07200
N241        N  0.54915225  0.04648775  0.25973839    -0.59700
N242        N  0.69345337  0.02489409  0.16321848    -0.05300
N243        N  0.73339866  0.99396502  0.16080121    -0.60900
N244        N  0.69995398  0.06064244  0.19762564    -0.07200
N245        N  0.74508517  0.05490613  0.21938662    -0.60000
N246        N  0.57632943  0.02070322  0.18552272    -0.04900
N247        N  0.53999300  0.98738567  0.19898343    -0.61000
Mn248      Mn  0.62704884  0.02130878  0.11653441     1.18400
C249        C  0.52283062  0.00410089  0.24524854     0.97300
C250        C  0.76528367  0.01310769  0.19601002     0.97900
N251        N  0.55704872  0.18162156  0.02527646    -0.07200
N252        N  0.52241114  0.19417879  0.99011599    -0.63500
N253        N  0.68101695  0.20735394  0.05176338    -0.06000
N254        N  0.72579982  0.22916232  0.04410945    -0.64200
N255        N  0.67327526  0.17264445  0.01644309    -0.06700
N256        N  0.71172790  0.17009372  0.98391219    -0.63800
N257        N  0.56255667  0.21907990  0.05822612    -0.05600
N258        N  0.53163388  0.25814243  0.04543600    -0.64500
Mn259      Mn  0.61383547  0.11852522  0.02076010     1.10700
C260        C  0.50613523  0.24190892  0.00303471     0.98500
C261        C  0.74424086  0.20495302  0.00205389     0.98600
N262        N  0.69693303  0.18131188  0.20747104    -0.06700
N263        N  0.72965271  0.19479042  0.24373046    -0.62100
N264        N  0.57428843  0.21041053  0.17993190    -0.06100
N265        N  0.53321941  0.23855015  0.18890763    -0.58800
N266        N  0.58029523  0.17548137  0.21634331    -0.07400
N267        N  0.54406897  0.17963891  0.25147091    -0.61700
N268        N  0.69166306  0.21868281  0.17351880    -0.06400
N269        N  0.72057080  0.25849355  0.18687276    -0.58900
Mn270      Mn  0.64036399  0.11788514  0.21260137     1.20200
Mn271      Mn  0.62744736  0.21639991  0.11565066     1.10100
Cl272      Cl  0.62686058  0.11887507  0.11661999    -0.86800
C273        C  0.74483223  0.24290830  0.23060489     0.95500
C274        C  0.51475258  0.21824615  0.23297367     0.95300
C275        C  0.61869072  0.61726461  0.11252841    -0.03400
C276        C  0.11598393  0.61591698  0.61638173    -0.03400
N277        N  0.27940266  0.30872676  0.42444626    -0.07000
N278        N  0.24927300  0.26883652  0.42949720    -0.59100
N279        N  0.30680420  0.42669092  0.46404328    -0.06700
N280        N  0.29418063  0.46070905  0.49976164    -0.61200
N281        N  0.27102479  0.42578696  0.42853556    -0.06300
N282        N  0.23331016  0.45859003  0.43976258    -0.59100
N283        N  0.31605506  0.30800344  0.45898522    -0.05900
N284        N  0.31187359  0.26704002  0.48828515    -0.61600
C285        C  0.27037053  0.24306922  0.46897677     0.95200
C286        C  0.24816446  0.48070097  0.48418789     0.95000
N287        N  0.46378463  0.43158016  0.42197636    -0.07200
N288        N  0.49484061  0.47069777  0.42793018    -0.59700
N289        N  0.43757118  0.31240151  0.46527408    -0.05300
N290        N  0.45023414  0.27804294  0.50120962    -0.60900
N291        N  0.47355121  0.31386168  0.42950581    -0.07200
N292        N  0.51130930  0.28085603  0.44048976    -0.60000
N293        N  0.42755890  0.43133436  0.45750417    -0.04900
N294        N  0.43250831  0.47087561  0.48787347    -0.61000
Mn295      Mn  0.37193314  0.36951003  0.46356797     1.18400
C296        C  0.47413341  0.49523830  0.46847301     0.97300
C297        C  0.49617718  0.25807401  0.48509538     0.97900
N298        N  0.27515564  0.42428662  0.30744225    -0.07200
N299        N  0.24211748  0.46177684  0.29966665    -0.63500
N300        N  0.30900058  0.30651214  0.27164344    -0.06000
N301        N  0.29688540  0.27265347  0.23613756    -0.64200
N302        N  0.27258980  0.30833546  0.30691326    -0.06700
N303        N  0.23494323  0.27612494  0.29597152    -0.63800
N304        N  0.31052779  0.42323738  0.27104802    -0.05600
N305        N  0.30274217  0.46012186  0.23743600    -0.64500
Mn306      Mn  0.27308424  0.36721988  0.36716980     1.10700
C307        C  0.26030285  0.48335531  0.25622788     0.98500
C308        C  0.25065068  0.25367124  0.25183383     0.98600
N309        N  0.46605479  0.31001703  0.31047055    -0.06700
N310        N  0.49891728  0.27193372  0.30507504    -0.62100
N311        N  0.43154037  0.42546067  0.26564678    -0.06100
N312        N  0.44195483  0.45810610  0.22767451    -0.58800
N313        N  0.46690674  0.42842274  0.30146405    -0.07400
N314        N  0.50166000  0.46361471  0.28868547    -0.61700
N315        N  0.43027188  0.30828810  0.27507304    -0.06400
N316        N  0.43840373  0.26959641  0.24417629    -0.58900
Mn317      Mn  0.46931342  0.37121537  0.36573959     1.20200
Mn318      Mn  0.37055531  0.36569696  0.26923414     1.10100
Cl319      Cl  0.37126421  0.36871634  0.36646822    -0.86800
C320        C  0.48058694  0.24692873  0.26413845     0.95500
C321        C  0.48534397  0.48242844  0.24280816     0.95300
N322        N  0.53004652  0.68173533  0.68531534    -0.07000
N323        N  0.50341648  0.68584366  0.72790364    -0.59100
N324        N  0.55211813  0.72388425  0.56408976    -0.06700
N325        N  0.53902781  0.75972256  0.52988889    -0.61200
N326        N  0.51545782  0.68933114  0.56807176    -0.06300
N327        N  0.47675298  0.70110169  0.53694143    -0.59100
N328        N  0.56448171  0.71838010  0.68169539    -0.05900
N329        N  0.56130690  0.74898122  0.72137755    -0.61600
C330        C  0.52341233  0.72770911  0.75001262     0.95200
C331        C  0.49205858  0.74480350  0.51278305     0.95000
N332        N  0.70958751  0.67935676  0.55576331    -0.07200
N333        N  0.74172375  0.68525243  0.51733365    -0.59700
N334        N  0.68361943  0.72092074  0.67312142    -0.05300
N335        N  0.69633020  0.75652324  0.70668793    -0.60900
N336        N  0.71918859  0.68470572  0.67149008    -0.07200
N337        N  0.75717117  0.69535487  0.70340747    -0.60000
N338        N  0.67463965  0.71630695  0.55646215    -0.04900
N339        N  0.68230225  0.74866043  0.51831398    -0.61000
Mn340      Mn  0.61855216  0.72185147  0.61837103     1.18400
C341        C  0.72388786  0.72816275  0.49466250     0.97300
C342        C  0.74207837  0.73988070  0.72571064     0.97900
N343        N  0.51913939  0.56933040  0.56575832    -0.07200
N344        N  0.48558072  0.56483918  0.52854157    -0.63500
N345        N  0.55511950  0.52572321  0.68021230    -0.06000
N346        N  0.54353855  0.48818376  0.71297953    -0.64200
N347        N  0.52046850  0.56263728  0.68311970    -0.06700
N348        N  0.48484752  0.55103185  0.71803230    -0.63800
N349        N  0.55560519  0.53404772  0.56225999    -0.05600
N350        N  0.54819661  0.50528448  0.52201180    -0.64500
Mn351      Mn  0.51956711  0.62594034  0.62581990     1.10700
C352        C  0.50504049  0.52551584  0.50120320     0.98500
C353        C  0.49973454  0.50447977  0.73686650     0.98600
N354        N  0.71240350  0.56509077  0.67485093    -0.06700
N355        N  0.74465958  0.55944390  0.71306211    -0.62100
N356        N  0.67818079  0.52320353  0.55939556    -0.06100
N357        N  0.69016661  0.48530773  0.52741358    -0.58800
N358        N  0.71397762  0.55874651  0.55750325    -0.07400
N359        N  0.75045754  0.54595404  0.52394640    -0.61700
N360        N  0.67556130  0.53069677  0.67743883    -0.06400
N361        N  0.68132797  0.50135633  0.71813566    -0.58900
Mn362      Mn  0.71523829  0.62188953  0.61467893     1.20200
Mn363      Mn  0.61605463  0.52653398  0.61956526     1.10100
Cl364      Cl  0.61734952  0.62402825  0.61917813    -0.86800
C365        C  0.72412216  0.52023138  0.74001039     0.95500
C366        C  0.73525897  0.50013997  0.50480725     0.95300
C367        C  0.62122678  0.11132583  0.61387069    -0.03400
C368        C  0.12541560  0.12105544  0.11665410    -0.03400
C369        C  0.16083213  0.15337547  0.15331593    -0.06300
C370        C  0.13648681  0.18537427  0.19018927    -0.33800
C371        C  0.16465585  0.21682775  0.22343414     0.35500
C372        C  0.21902083  0.21741210  0.22106665    -0.06700
C373        C  0.24380569  0.18352692  0.18745503    -0.33700
C374        C  0.21596156  0.15054671  0.15556278     0.35400
H375        H  0.09471984  0.18709993  0.19219552     0.15800
O376        O  0.13833307  0.24890761  0.25602973    -0.61200
H377        H  0.28560738  0.18159271  0.18663248     0.15800
O378        O  0.24393672  0.11488894  0.12863313    -0.61300
H379        H  0.25401235  0.08808057  0.15399176     0.42800
H380        H  0.12780593  0.22689798  0.28548811     0.42700
C381        C  0.58895009  0.14986472  0.57824646    -0.06300
C382        C  0.59952887  0.20345798  0.57578077    -0.33800
C383        C  0.57048666  0.23806850  0.54523253     0.35500
C384        C  0.52894559  0.22086027  0.51564105    -0.06700
C385        C  0.52010848  0.16770163  0.51443298    -0.33700
C386        C  0.55017978  0.13248141  0.54383454     0.35400
H387        H  0.63130384  0.21957056  0.59668623     0.15800
O388        O  0.58293355  0.28920698  0.54509644    -0.61200
H389        H  0.48991571  0.15313227  0.49007436     0.15800
O390        O  0.54150664  0.08084031  0.53839374    -0.61300
H391        H  0.50457022  0.07529297  0.54697552     0.42800
H392        H  0.60798521  0.29348259  0.51645696     0.42700
C393        C  0.15387928  0.58383869  0.58050020    -0.06300
C394        C  0.13186543  0.55380048  0.54109081    -0.33800
C395        C  0.16179042  0.52236868  0.50841640     0.35500
C396        C  0.21569873  0.51802319  0.51480504    -0.06700
C397        C  0.23853607  0.54942867  0.55168525    -0.33700
C398        C  0.20911744  0.58344078  0.58234547     0.35400
H399        H  0.09038537  0.55379541  0.53618456     0.15800
O400        O  0.13741589  0.49551299  0.47070591    -0.61200
H401        H  0.28011214  0.54875344  0.55596042     0.15800
O402        O  0.23596556  0.61644370  0.61257156    -0.61300
H403        H  0.24253277  0.64709308  0.59067551     0.42800
H404        H  0.12479123  0.46372589  0.48772120     0.42700
C405        C  0.51642043  0.51752273  0.20905072    -0.06300
C406        C  0.53814087  0.49873848  0.16358810    -0.33800
C407        C  0.56953836  0.52965052  0.13163400     0.35500
C408        C  0.58244002  0.58098163  0.14574432    -0.06700
C409        C  0.55559043  0.60073573  0.18903780    -0.33700
C410        C  0.52455376  0.56940467  0.22109174     0.35400
H411        H  0.53070868  0.45944417  0.15252554     0.15800
O412        O  0.58637030  0.50889656  0.08629465    -0.61200
H413        H  0.55990412  0.64065436  0.19923906     0.15800
O414        O  0.50093603  0.59048038  0.26323944    -0.61300
H415        H  0.52564089  0.58520107  0.29172224     0.42800
H416        H  0.55529321  0.50643457  0.06445953     0.42700
C417        C  0.77810924  0.27605721  0.26447702    -0.06300
C418        C  0.77305119  0.32994801  0.26466156    -0.33800
C419        C  0.80193757  0.36092350  0.29852209     0.35500
C420        C  0.83912281  0.33895862  0.33271602    -0.06700
C421        C  0.84191762  0.28443296  0.33335109    -0.33700
C422        C  0.81280717  0.25377447  0.29993887     0.35400
H423        H  0.74544369  0.34834230  0.23930968     0.15800
O424        O  0.79266455  0.41293176  0.29868065    -0.61200
H425        H  0.86598394  0.26410800  0.36042395     0.15800
O426        O  0.81846538  0.20139597  0.30294225    -0.61300
H427        H  0.84494922  0.19271652  0.27671577     0.42800
H428        H  0.80523332  0.42604262  0.26505819     0.42700
C429        C  0.91167994  0.40883243  0.33600452    -0.06300
C430        C  0.91347901  0.40749687  0.28164387    -0.33800
C431        C  0.94447236  0.44114090  0.25231738     0.35500
C432        C  0.97791422  0.47610319  0.27608098    -0.06700
C433        C  0.98087972  0.47429756  0.32987195    -0.33700
C434        C  0.94859896  0.44154828  0.35956750     0.35400
H435        H  0.89100824  0.38034303  0.26042416     0.15800
O436        O  0.94274149  0.43824302  0.19983329    -0.61200
H437        H  0.00722499  0.49958675  0.34934507     0.15800
O438        O  0.95357842  0.44168658  0.41195605    -0.61300
H439        H  0.94345369  0.47668976  0.42310170     0.42800
H440        H  0.91075736  0.45685125  0.18984466     0.42700
C441        C  0.98017527  0.27501602  0.46323129    -0.06300
C442        C  0.94336178  0.30617804  0.48731500    -0.33800
C443        C  0.91043361  0.33926557  0.45942518     0.35500
C444        C  0.91044059  0.33968767  0.40443639    -0.06700
C445        C  0.94985350  0.30942855  0.38084829    -0.33700
C446        C  0.98405432  0.27771435  0.40939880     0.35400
H447        H  0.94088654  0.30592593  0.52883794     0.15800
O448        O  0.88045304  0.37212678  0.48762859    -0.61200
H449        H  0.95378028  0.30997954  0.33945090     0.15800
O450        O  0.02162218  0.25017518  0.38424669    -0.61300
H451        H  0.00385209  0.21961527  0.37061411     0.42800
H452        H  0.90262765  0.40216106  0.49447418     0.42700
C453        C  0.76682872  0.46861738  0.46713262    -0.06300
C454        C  0.76117524  0.41494822  0.46367353    -0.33800
C455        C  0.79356874  0.38477365  0.43144856     0.35500
C456        C  0.83391747  0.40756773  0.40151114    -0.06700
C457        C  0.83518615  0.46210142  0.40163498    -0.33700
C458        C  0.80372494  0.49184823  0.43451791     0.35400
H459        H  0.73233044  0.39583221  0.48713590     0.15800
O460        O  0.78622209  0.33258440  0.43037227    -0.61200
H461        H  0.86056057  0.48308617  0.37624419     0.15800
O462        O  0.80831175  0.54431967  0.43292847    -0.61300
H463        H  0.83894166  0.55198419  0.45409380     0.42800
H464        H  0.79591579  0.31950992  0.46485566     0.42700
C465        C  0.27277576  0.78104349  0.26793744    -0.06300
C466        C  0.31487926  0.80784383  0.24681910    -0.33800
C467        C  0.34835755  0.83783282  0.27711445     0.35500
C468        C  0.33970216  0.84417569  0.33108950    -0.06700
C469        C  0.29946350  0.81364449  0.35225462    -0.33700
C470        C  0.26572348  0.78426989  0.32172080     0.35400
H471        H  0.32277788  0.80490685  0.20609224     0.15800
O472        O  0.39066355  0.85837126  0.25294513    -0.61200
H473        H  0.29292396  0.81382133  0.39333769     0.15800
O474        O  0.22688553  0.75742653  0.34556983    -0.61300
H475        H  0.19814286  0.78248449  0.34951780     0.42800
H476        H  0.41441781  0.82905373  0.24655802     0.42700
C477        C  0.48490180  0.97560344  0.27856722    -0.06300
C478        C  0.43137563  0.98015739  0.27102439    -0.33800
C479        C  0.39578982  0.95148326  0.30110159     0.35500
C480        C  0.41304343  0.91436957  0.33789750    -0.06700
C481        C  0.46695262  0.91390505  0.34768528    -0.33700
C482        C  0.50216658  0.94304510  0.31822740     0.35400
H483        H  0.41695104  0.00607841  0.24161280     0.15800
O484        O  0.34402911  0.95800036  0.29218211    -0.61200
H485        H  0.48287973  0.89162296  0.37892315     0.15800
O486        O  0.55386439  0.93936283  0.32876266    -0.61300
H487        H  0.56714503  0.91170440  0.30622204     0.42800
H488        H  0.33396416  0.98911616  0.31163503     0.42700
C489        C  0.27934030  0.97858143  0.47174958    -0.06300
C490        C  0.33341915  0.98059268  0.47173061    -0.33800
C491        C  0.36337284  0.95074338  0.43762103     0.35500
C492        C  0.33973502  0.91781665  0.40111194    -0.06700
C493        C  0.28523156  0.92139739  0.39769553    -0.33700
C494        C  0.25546389  0.94937790  0.43345644     0.35400
H495        H  0.35291534  0.00378887  0.49985250     0.15800
O496        O  0.41613069  0.95323201  0.44118330    -0.61200
H497        H  0.26450471  0.90225615  0.36777466     0.15800
O498        O  0.20268491  0.94880166  0.42970403    -0.61300
H499        H  0.19186701  0.91639804  0.44683228     0.42800
H500        H  0.42510451  0.93593903  0.47400626     0.42700
C501        C  0.40159174  0.83955940  0.40597773    -0.06300
C502        C  0.38853581  0.83549308  0.45900408    -0.33800
C503        C  0.41673467  0.80416644  0.49336553     0.35500
C504        C  0.45927826  0.77517091  0.47608056    -0.06700
C505        C  0.46940254  0.77440658  0.42315788    -0.33700
C506        C  0.44006200  0.80450439  0.38824386     0.35400
H507        H  0.35609402  0.85639615  0.47487167     0.15800
O508        O  0.40300114  0.80324219  0.54427213    -0.61200
H509        H  0.50014236  0.75004690  0.40860805     0.15800
O510        O  0.44960849  0.79978424  0.33665332    -0.61300
H511        H  0.48638994  0.80887131  0.33130918     0.42800
H512        H  0.37687512  0.77566717  0.54747220     0.42700
C513        C  0.33046597  0.34011464  0.83549600    -0.06300
C514        C  0.29624066  0.30337637  0.85745785    -0.33800
C515        C  0.26507037  0.27101153  0.82725173     0.35500
C516        C  0.26513398  0.27561975  0.77336896    -0.06700
C517        C  0.29519253  0.31449833  0.75120463    -0.33700
C518        C  0.32630739  0.34697455  0.78094693     0.35400
H519        H  0.29502581  0.29843026  0.89872937     0.15800
O520        O  0.23501343  0.23461088  0.85099948    -0.61200
H521        H  0.29429406  0.32019754  0.70998088     0.15800
O522        O  0.35050476  0.38624812  0.75532053    -0.61300
H523        H  0.32524780  0.41504756  0.75498267     0.42800
H524        H  0.20082714  0.25132387  0.85581620     0.42700
C525        C  0.27044241  0.47688660  0.96879336    -0.06300
C526        C  0.30011363  0.43822131  0.99217053    -0.33800
C527        C  0.32694266  0.40105667  0.96295303     0.35500
C528        C  0.32949858  0.40473708  0.90806394    -0.06700
C529        C  0.29447232  0.44013322  0.88544506    -0.33700
C530        C  0.26649532  0.47628589  0.91475134     0.35400
H531        H  0.30067441  0.43527033  0.03364632     0.15800
O532        O  0.34748950  0.36006004  0.98923418    -0.61200
H533        H  0.29148624  0.44224795  0.84406471     0.15800
O534        O  0.23657954  0.51208968  0.88970010    -0.61300
H535        H  0.26027570  0.54076270  0.88120029     0.42800
H536        H  0.32081147  0.33295285  0.98795273     0.42700
C537        C  0.40461333  0.33717727  0.90517280    -0.06300
C538        C  0.40553444  0.28276795  0.90215931    -0.33800
C539        C  0.43666691  0.25197340  0.93452340     0.35500
C540        C  0.47049147  0.27435616  0.97014756    -0.06700
C541        C  0.47212593  0.32828183  0.97170986    -0.33700
C542        C  0.44093270  0.35927693  0.93938071     0.35400
H543        H  0.38270906  0.26281507  0.87437419     0.15800
O544        O  0.43340827  0.19955378  0.93082205    -0.61200
H545        H  0.49832632  0.34683543  0.99780096     0.15800
O546        O  0.44418225  0.41165011  0.94369745    -0.61300
H547        H  0.47601280  0.42133132  0.92470629     0.42800
H548        H  0.40431030  0.18970369  0.95372429     0.42700
C549        C  0.40437290  0.40859504  0.83943395    -0.06300
C550        C  0.40123902  0.46320198  0.83987757    -0.33800
C551        C  0.43083530  0.49432997  0.80650049     0.35500
C552        C  0.46860056  0.47248922  0.77408611    -0.06700
C553        C  0.47572155  0.41895054  0.77658178    -0.33700
C554        C  0.44402998  0.38732144  0.80767117     0.35400
H555        H  0.37604235  0.48336477  0.86584466     0.15800
O556        O  0.42200740  0.54637887  0.80587538    -0.61200
H557        H  0.50486381  0.40093305  0.75265368     0.15800
O558        O  0.45177873  0.33515953  0.80605788    -0.61300
H559        H  0.43748296  0.32407488  0.77278385     0.42800
H560        H  0.44371153  0.56019823  0.83366030     0.42700
C561        C  0.21026741  0.71785292  0.71738959    -0.06300
C562        C  0.20679601  0.66456159  0.72652833    -0.33800
C563        C  0.17541409  0.63246400  0.69638337     0.35500
C564        C  0.14582098  0.65264303  0.65472780    -0.06700
C565        C  0.14485966  0.70723836  0.65051095    -0.33700
C566        C  0.17775744  0.73898234  0.67943705     0.35400
H567        H  0.23010184  0.64697249  0.75632134     0.15800
O568        O  0.17693075  0.58059773  0.70599621    -0.61200
H569        H  0.11911979  0.72665562  0.62438334     0.15800
O570        O  0.17749710  0.79092071  0.67011178    -0.61300
H571        H  0.15057600  0.80507230  0.69335122     0.42800
H572        H  0.15526626  0.57539580  0.73711442     0.42700
C573        C  0.21915034  0.02568323  0.01056499    -0.06300
C574        C  0.22069212  0.07951947  0.00757512    -0.33800
C575        C  0.18980992  0.11010205  0.04005939     0.35500
C576        C  0.15721055  0.08720550  0.07796844    -0.06700
C577        C  0.15239795  0.03301848  0.07640979    -0.33700
C578        C  0.18339426  0.00272176  0.04431517     0.35400
H579        H  0.24735102  0.09814736  0.98128844     0.15800
O580        O  0.19480198  0.16250085  0.03719057    -0.61200
H581        H  0.12430342  0.01291678  0.09961522     0.15800
O582        O  0.17726362  0.95037732  0.04531814    -0.61300
H583        H  0.19614228  0.93820866  0.07614235     0.42800
H584        H  0.17507757  0.17321323  0.00638005     0.42700
C585        C  0.50367408  0.70935019  0.02241661    -0.06300
C586        C  0.52586979  0.72963809  0.06682334    -0.33800
C587        C  0.56217535  0.70153738  0.09629483     0.35500
C588        C  0.57917125  0.65152630  0.08096342    -0.06700
C589        C  0.55257846  0.63009184  0.03902218    -0.33700
C590        C  0.51701403  0.65850679  0.00931282     0.35400
H591        H  0.51446899  0.76759169  0.07956421     0.15800
O592        O  0.57738287  0.72211351  0.14204877    -0.61200
H593        H  0.56002353  0.59077740  0.02815792     0.15800
O594        O  0.49553993  0.63571999  0.96739271    -0.61300
H595        H  0.46533633  0.61657617  0.98094755     0.42800
H596        H  0.59441672  0.75513472  0.13336536     0.42700
C597        C  0.52118611  0.01198821  0.71440313    -0.06300
C598        C  0.57531039  0.00833455  0.71610708    -0.33800
C599        C  0.60716461  0.04027909  0.68500286     0.35500
C600        C  0.58551505  0.07736471  0.65044776    -0.06700
C601        C  0.53094986  0.08293442  0.65262203    -0.33700
C602        C  0.49942961  0.05008135  0.68248029     0.35400
H603        H  0.59316363  0.98040490  0.74156899     0.15800
O604        O  0.65976844  0.03482511  0.68849589    -0.61200
H605        H  0.51159118  0.11337361  0.63190390     0.15800
O606        O  0.44686238  0.05649792  0.68102360    -0.61300
H607        H  0.43491661  0.03255665  0.65428059     0.42800
H608        H  0.66807688  0.00106422  0.67304666     0.42700
C609        C  0.71809445  0.21012885  0.71675152    -0.06300
C610        C  0.66389475  0.20929010  0.72011980    -0.33800
C611        C  0.63366304  0.17701225  0.68894700     0.35500
C612        C  0.65658050  0.14335285  0.65212752    -0.06700
C613        C  0.71146913  0.14116628  0.65255441    -0.33700
C614        C  0.74160552  0.17465346  0.68291568     0.35400
H615        H  0.64430523  0.23521998  0.74617335     0.15800
O616        O  0.58097921  0.18072679  0.69314165    -0.61200
H617        H  0.73210578  0.11358036  0.62943587     0.15800
O618        O  0.79438053  0.17098057  0.68031504    -0.61300
H619        H  0.80454066  0.19294586  0.65070545     0.42800
H620        H  0.57195652  0.16152524  0.72496626     0.42700
C621        C  0.02608931  0.21927694  0.01661409    -0.06300
C622        C  0.02471937  0.16567291  0.01347637    -0.33800
C623        C  0.05611258  0.13444521  0.04506608     0.35500
C624        C  0.09031358  0.15640023  0.08150081    -0.06700
C625        C  0.09246953  0.21087732  0.08223751    -0.33700
C626        C  0.05990513  0.24167863  0.05168783     0.35400
H627        H  0.99871707  0.14774644  0.98672677     0.15800
O628        O  0.05157598  0.08210999  0.04137219    -0.61200
H629        H  0.11957056  0.23081936  0.10595897     0.15800
O630        O  0.06174485  0.29410506  0.05624967    -0.61300
H631        H  0.03428961  0.30280764  0.08147513     0.42800
H632        H  0.06875887  0.07293446  0.00855668     0.42700
C633        C  0.72073046  0.51589932  0.01774350    -0.06300
C634        C  0.72058981  0.51313163  0.07149427    -0.33800
C635        C  0.68972848  0.54631514  0.10148750     0.35500
C636        C  0.65734435  0.58443651  0.07839315    -0.06700
C637        C  0.66292496  0.59078834  0.02444994    -0.33700
C638        C  0.69284161  0.55647595  0.99446433     0.35400
H639        H  0.74310346  0.48354086  0.09067003     0.15800
O640        O  0.69061973  0.54014024  0.15377725    -0.59600
H641        H  0.64435306  0.62242380  0.00467533     0.15800
O642        O  0.69510469  0.56360631  0.94231763    -0.61300
H643        H  0.72548664  0.58590425  0.93623909     0.42800
H644        H  0.67308883  0.50706981  0.16102359     0.42700
C645        C  0.01544839  0.51684355  0.71701025    -0.06300
C646        C  0.05543286  0.49468647  0.68828902    -0.33800
C647        C  0.08826161  0.52433288  0.65639966     0.35500
C648        C  0.08156676  0.57897750  0.65158293    -0.06700
C649        C  0.04300526  0.60091053  0.68389438    -0.33700
C650        C  0.00982536  0.57064158  0.71505003     0.35400
H651        H  0.06191285  0.45355883  0.69106767     0.15800
O652        O  0.12941280  0.49926908  0.63441586    -0.61200
H653        H  0.03762247  0.64222737  0.68383062     0.15800
O654        O  0.97178631  0.59420616  0.74329215    -0.61300
H655        H  0.98827591  0.60306125  0.77623828     0.42800
H656        H  0.11439086  0.47410917  0.61042394     0.42700
C657        C  0.72326016  0.71555153  0.20491292    -0.06300
C658        C  0.71560550  0.72502305  0.15246428    -0.33800
C659        C  0.68399232  0.69283322  0.12267965     0.35500
C660        C  0.65592519  0.65150235  0.14558979    -0.06700
C661        C  0.66624795  0.64117633  0.19809593    -0.33700
C662        C  0.69953451  0.67209286  0.22705538     0.35400
H663        H  0.73502111  0.75709473  0.13410592     0.15800
O664        O  0.68076599  0.70206027  0.07085708    -0.61200
H665        H  0.64996068  0.60799702  0.21719886     0.15800
O666        O  0.70801653  0.65972556  0.27756580    -0.61300
H667        H  0.73833736  0.63624551  0.27724751     0.42800
H668        H  0.66389028  0.73619626  0.06707577     0.42700
C669        C  0.03197242  0.02351593  0.22225057    -0.06300
C670        C  0.08591255  0.01974930  0.22119920    -0.33800
C671        C  0.11570554  0.05152497  0.18886778     0.35500
C672        C  0.09194041  0.08702366  0.15422156    -0.06700
C673        C  0.03750130  0.09174959  0.15753701    -0.33700
C674        C  0.00794553  0.06009844  0.19002134     0.35400
H675        H  0.10539096  0.99264566  0.24637136     0.15800
O676        O  0.16836472  0.04615126  0.19012215    -0.61200
H677        H  0.01669204  0.12026200  0.13545396     0.15800
O678        O  0.95522082  0.06534847  0.18964983    -0.61300
H679        H  0.94311283  0.04010368  0.16418636     0.42800
H680        H  0.17921455  0.06294133  0.22227474     0.42700
C681        C  0.01958027  0.70523593  0.50359279    -0.06300
C682        C  0.07351418  0.71033424  0.50533180    -0.33800
C683        C  0.10405421  0.68193133  0.54037868     0.35500
C684        C  0.08119522  0.64798580  0.57718272    -0.06700
C685        C  0.02688771  0.64109017  0.57267152    -0.33700
C686        C  0.99663953  0.66929734  0.53716467     0.35400
H687        H  0.09259315  0.73628043  0.47868959     0.15800
O688        O  0.15681862  0.68668758  0.53758242    -0.61200
H689        H  0.00669880  0.61282448  0.59545391     0.15800
O690        O  0.94420718  0.66239197  0.53690029    -0.61300
H691        H  0.93852630  0.63260039  0.51421063     0.42800
H692        H  0.16431464  0.72359827  0.54280578     0.42700
C693        C  0.71446953  0.01850515  0.50025820    -0.06300
C694        C  0.67512586  0.99524956  0.52923857    -0.33800
C695        C  0.64451159  0.02304799  0.56490973     0.35500
C696        C  0.65350641  0.07651183  0.57470276    -0.06700
C697        C  0.69099931  0.09998254  0.54237334    -0.33700
C698        C  0.72153856  0.07191545  0.50690083     0.35400
H699        H  0.66748875  0.95475515  0.52402911     0.15800
O700        O  0.60480269  0.99697503  0.58813707    -0.61200
H701        H  0.69733438  0.14096069  0.54515279     0.15800
O702        O  0.75783626  0.09771271  0.47830090    -0.61300
H703        H  0.73927142  0.11017583  0.44740876     0.42800
H704        H  0.57931207  0.99047097  0.56080070     0.42700
C705        C  0.83072330  0.90995405  0.89277336    -0.06300
C706        C  0.77805766  0.91809471  0.88017096    -0.33800
C707        C  0.74548011  0.94957344  0.90979179     0.35500
C708        C  0.76483811  0.97567506  0.95229546    -0.06700
C709        C  0.81800940  0.97317098  0.96177215    -0.33700
C710        C  0.85106650  0.94199233  0.93167098     0.35400
H711        H  0.76116391  0.90019293  0.84713904     0.15800
O712        O  0.69398784  0.95278411  0.89811619    -0.61200
H713        H  0.83401230  0.99517423  0.99288853     0.15800
O714        O  0.90319188  0.94225800  0.94099303    -0.61300
H715        H  0.90751654  0.93325238  0.97776474     0.42800
H716        H  0.69173778  0.97806621  0.86951262     0.42700
C717        C  0.90224750  0.90722347  0.82898489    -0.06300
C718        C  0.87867348  0.93911204  0.79117856    -0.33800
C719        C  0.90750148  0.96989112  0.75685531     0.35500
C720        C  0.96176767  0.97050164  0.75926953    -0.06700
C721        C  0.98567622  0.94117312  0.79793135    -0.33700
C722        C  0.95689996  0.91174476  0.83364184     0.35400
H723        H  0.83711132  0.93877424  0.78699879     0.15800
O724        O  0.88201981  0.99804448  0.72007186    -0.61200
H725        H  0.02728404  0.94233920  0.80170225     0.15800
O726        O  0.98316737  0.88950687  0.87359976    -0.61300
H727        H  0.99199741  0.91807781  0.89679535     0.42800
H728        H  0.87938473  0.97489609  0.69019900     0.42700
C729        C  0.83395298  0.83490987  0.82661164    -0.06300
C730        C  0.84886222  0.82576097  0.77498273    -0.33800
C731        C  0.81998091  0.79415822  0.74264983     0.35500
C732        C  0.77478864  0.77042974  0.76071633    -0.06700
C733        C  0.76099685  0.77633858  0.81236828    -0.33700
C734        C  0.79126831  0.80591945  0.84560831     0.35400
H735        H  0.88374419  0.84219537  0.75909735     0.15800
O736        O  0.83639055  0.78672026  0.69312709    -0.61200
H737        H  0.72705968  0.75709552  0.82736330     0.15800
O738        O  0.77728106  0.80793669  0.89636456    -0.61300
H739        H  0.79007446  0.77528022  0.91167807     0.42800
H740        H  0.82262803  0.81651564  0.67343578     0.42700
C741        C  0.89639123  0.83192364  0.89829748    -0.06300
C742        C  0.93278263  0.79816982  0.87526291    -0.33800
C743        C  0.96282899  0.76308325  0.90400360     0.35500
C744        C  0.95591765  0.75831529  0.95752750    -0.06700
C745        C  0.91663566  0.78783351  0.98033260    -0.33700
C746        C  0.88655400  0.82340876  0.95178417     0.35400
H747        H  0.93930997  0.80021292  0.83422695     0.15800
O748        O  0.99751674  0.73216374  0.87873774    -0.61200
H749        H  0.90845553  0.78286572  0.02087975     0.15800
O750        O  0.84448086  0.84504197  0.97577682    -0.61300
H751        H  0.85748766  0.86154363  0.00728636     0.42800
H752        H  0.02815102  0.75401182  0.87231828     0.42700
loop_ 
_geom_bond_atom_site_label_1 
_geom_bond_atom_site_label_2 
_geom_bond_distance 
_geom_bond_site_symmetry_2 
_ccdc_geom_bond_type 
C1          C705   1.576       .  S
C1          C717   1.583       .  S
C1          C729   1.578       .  S
C1          C741   1.583       .  S
N2            N3   1.333       .  A
N2            N8   1.314       .  A
N2          Mn31   2.271       .  S
N3           C10   1.366       .  A
N4            N6   1.311       .  A
N4            N5   1.309       .  A
N4          Mn20   2.117       .  S
N5           C11   1.341       .  A
N6            N7   1.309       .  A
N6          Mn31   2.168       .  S
N7           C11   1.351       .  A
N8            N9   1.326   1_565  A
N8          Mn20   2.202       .  S
N9           C10   1.355   1_545  A
C10         C693   1.520   1_565  S
C11         C250   1.410   1_565  S
N12          N18   1.309       .  A
N12          N13   1.326   1_655  A
N12         Mn42   2.211       .  S
N13          C21   1.358       .  A
N14          N15   1.303       .  A
N14          N16   1.315       .  A
N14         Mn20   2.135       .  S
N15          C22   1.340       .  A
N16          N17   1.306       .  A
N16         Mn42   2.120       .  S
N17          C22   1.339       .  A
N18          N19   1.320   1_565  A
N18         Mn20   2.189       .  S
N19          C21   1.352   1_645  A
Mn20        Cl44   2.528       .  S
C21         C669   1.491   1_565  S
C22         C159   1.393   1_665  S
N23          N24   1.329       .  A
N23          N29   1.316       .  A
N23         Mn31   2.240       .  S
N24          C32   1.358       .  A
N25          N27   1.320       .  A
N25          N26   1.309       .  A
N25         Mn43   2.169       .  S
N26          C33   1.346       .  A
N27          N28   1.309       .  A
N27         Mn31   2.154       .  S
N28          C33   1.341       .  A
N29          N30   1.326       .  A
N29         Mn43   2.218       .  S
N30          C32   1.354       .  A
Mn31        Cl44   2.534       .  S
C32         C657   1.501       .  S
C33         C341   1.413       .  S
N34          N35   1.323   1_655  A
N34          N40   1.314       .  A
N34         Mn42   2.204       .  S
N35          C45   1.353   1_455  A
N36          N37   1.309       .  A
N36          N38   1.312       .  A
N36         Mn43   2.174       .  S
N37          C46   1.351       .  A
N38          N39   1.308   1_655  A
N38         Mn42   2.104       .  S
N39          C46   1.339   1_455  A
N40          N41   1.331       .  A
N40         Mn43   2.253       .  S
N41          C45   1.363       .  A
Mn42        Cl44   2.543       .  S
Mn43        Cl44   2.531       .  S
C45         C681   1.508   1_655  S
C46         C193   1.403   1_655  S
N47          N48   1.306   1_655  A
N47          N53   1.316       .  A
N47         Mn76   2.135       .  S
N48          C55   1.340   1_455  A
N49          N51   1.313       .  A
N49          N50   1.324   1_556  A
N49         Mn65   2.210       .  S
N50          C56   1.354   1_554  A
N51          N52   1.326   1_655  A
N51         Mn76   2.220       .  S
N52          C56   1.356   1_455  A
N53          N54   1.309   1_556  A
N53         Mn65   2.123       .  S
N54          C55   1.339   1_554  A
C55         C204   1.400   1_656  S
C56         C621   1.488   1_656  S
N57          N63   1.310       .  A
N57          N58   1.307       .  A
N57         Mn87   2.153       .  S
N58          C66   1.350       .  A
N59          N60   1.326   1_556  A
N59          N61   1.316       .  A
N59         Mn65   2.223       .  S
N60          C67   1.357   1_554  A
N61          N62   1.329       .  A
N61         Mn87   2.247       .  S
N62          C67   1.360       .  A
N63          N64   1.305       .  A
N63         Mn65   2.102       .  S
N64          C66   1.337       .  A
Mn65        Cl89   2.534       .  S
C66         C261   1.396   1_556  S
C67         C633   1.507   1_556  S
N68          N69   1.307       .  A
N68          N74   1.313       .  A
N68         Mn76   2.119       .  S
N69          C77   1.338       .  A
N70          N72   1.317       .  A
N70          N71   1.329       .  A
N70         Mn88   2.245       .  S
N71          C78   1.359       .  A
N72          N73   1.327       .  A
N72         Mn76   2.229       .  S
N73          C78   1.357       .  A
N74          N75   1.309       .  A
N74         Mn88   2.162       .  S
N75          C77   1.348       .  A
Mn76        Cl89   2.531       .  S
C77         C183   1.402   1_655  S
C78         C645   1.502   1_655  S
N79          N80   1.312       .  A
N79          N85   1.313       .  A
N79         Mn87   2.142       .  S
N80          C90   1.344       .  A
N81          N82   1.332       .  A
N81          N83   1.315       .  A
N81         Mn88   2.256       .  S
N82          C91   1.363       .  A
N83          N84   1.330       .  A
N83         Mn87   2.243       .  S
N84          C91   1.361       .  A
N85          N86   1.310       .  A
N85         Mn88   2.173       .  S
N86          C90   1.348       .  A
Mn87        Cl89   2.540       .  S
Mn88        Cl89   2.528       .  S
C90         C365   1.415       .  S
C91         C609   1.525       .  S
N92          N93   1.326       .  A
N92          N98   1.312       .  A
N92        Mn121   2.229       .  S
N93         C100   1.359       .  A
N94          N96   1.310       .  A
N94          N95   1.307       .  A
N94        Mn110   2.113       .  S
N95         C101   1.339       .  A
N96          N97   1.309       .  A
N96        Mn121   2.165       .  S
N97         C101   1.352       .  A
N98          N99   1.325   1_556  A
N98        Mn110   2.206       .  S
N99         C100   1.357   1_554  A
C100        C585   1.507   1_556  S
C101        C228   1.405   1_556  S
N102        N108   1.310       .  A
N102        N103   1.326   1_565  A
N102       Mn132   2.211       .  S
N103        C111   1.357   1_545  A
N104        N105   1.308   1_556  A
N104        N106   1.316       .  A
N104       Mn110   2.123       .  S
N105        C112   1.338   1_554  A
N106        N107   1.301       .  A
N106       Mn132   2.123       .  S
N107        C112   1.337       .  A
N108        N109   1.320       .  A
N108       Mn110   2.193       .  S
N109        C111   1.353       .  A
Mn110      Cl134   2.528       .  S
C111        C573   1.490   1_566  S
C112        C239   1.390   1_566  S
N113        N114   1.325       .  A
N113        N119   1.314       .  A
N113       Mn121   2.212       .  S
N114        C122   1.355       .  A
N115        N117   1.316       .  A
N115        N116   1.310       .  A
N115       Mn133   2.170       .  S
N116        C123   1.347       .  A
N117        N118   1.312       .  A
N117       Mn121   2.155       .  S
N118        C123   1.346       .  A
N119        N120   1.333       .  A
N119       Mn133   2.262       .  S
N120        C122   1.365       .  A
Mn121      Cl134   2.535       .  S
C122        C561   1.517       .  S
C123        C330   1.415       .  S
N124        N125   1.327       .  A
N124        N130   1.315       .  A
N124       Mn132   2.216       .  S
N125        C135   1.355       .  A
N126        N127   1.311       .  A
N126        N128   1.313       .  A
N126       Mn133   2.173       .  S
N127        C136   1.353       .  A
N128        N129   1.305       .  A
N128       Mn132   2.105       .  S
N129        C136   1.335       .  A
N130        N131   1.330       .  A
N130       Mn133   2.254       .  S
N131        C135   1.361       .  A
Mn132      Cl134   2.526       .  S
Mn133      Cl134   2.533       .  S
C135        C597   1.506   1_565  S
C136        C148   1.401   1_565  S
C137        C513   1.598       .  S
C137        C528   1.590       .  S
C137        C537   1.587       .  S
C137        C549   1.589       .  S
C138        C468   1.600       .  S
C138        C480   1.588       .  S
C138        C492   1.586       .  S
C138        C501   1.588       .  S
C139        C420   1.596       .  S
C139        C429   1.592       .  S
C139        C444   1.594       .  S
C139        C456   1.592       .  S
N140        N141   1.305       .  A
N140        N146   1.311       .  A
N140       Mn169   2.145       .  S
N141        C148   1.347       .  A
N142        N144   1.314       .  A
N142        N143   1.324   1_545  A
N142       Mn158   2.214       .  S
N143        C149   1.356   1_565  A
N144        N145   1.327       .  A
N144       Mn169   2.229       .  S
N145        C149   1.358       .  A
N146        N147   1.308   1_545  A
N146       Mn158   2.117       .  S
N147        C148   1.339   1_565  A
C149        C489   1.502   1_545  S
N150        N156   1.315       .  A
N150        N151   1.303   1_455  A
N150       Mn180   2.117       .  S
N151        C159   1.336   1_655  A
N152        N153   1.324   1_545  A
N152        N154   1.313       .  A
N152       Mn158   2.211       .  S
N153        C160   1.356   1_465  A
N154        N155   1.327   1_455  A
N154       Mn180   2.231       .  S
N155        C160   1.359       .  A
N156        N157   1.308   1_545  A
N156       Mn158   2.128       .  S
N157        C159   1.339   1_565  A
Mn158      Cl182   2.524       .  S
C160        C720   1.501   1_545  S
N161        N162   1.310       .  A
N161        N167   1.314       .  A
N161       Mn169   2.132       .  S
N162        C170   1.341       .  A
N163        N165   1.315       .  A
N163        N164   1.328       .  A
N163       Mn181   2.242       .  S
N164        C171   1.359       .  A
N165        N166   1.329       .  A
N165       Mn169   2.228       .  S
N166        C171   1.358       .  A
N167        N168   1.308       .  A
N167       Mn181   2.167       .  S
N168        C170   1.348       .  A
Mn169      Cl182   2.539       .  S
C170        C285   1.408       .  S
C171        C516   1.506       .  S
N172        N173   1.307   1_455  A
N172        N178   1.313       .  A
N172       Mn180   2.118       .  S
N173        C183   1.338   1_655  A
N174        N175   1.329       .  A
N174        N176   1.315       .  A
N174       Mn181   2.241       .  S
N175        C184   1.359       .  A
N176        N177   1.326   1_455  A
N176       Mn180   2.224       .  S
N177        C184   1.356   1_655  A
N178        N179   1.309       .  A
N178       Mn181   2.165       .  S
N179        C183   1.348       .  A
Mn180      Cl182   2.532       .  S
Mn181      Cl182   2.525       .  S
C184        C441   1.500   1_455  S
N185        N186   1.307       .  A
N185        N191   1.312       .  A
N185       Mn214   2.157       .  S
N186        C193   1.349       .  A
N187        N189   1.314       .  A
N187        N188   1.322   1_455  A
N187       Mn203   2.205       .  S
N188        C194   1.353   1_655  A
N189        N190   1.332       .  A
N189       Mn214   2.251       .  S
N190        C194   1.364       .  A
N191        N192   1.308   1_455  A
N191       Mn203   2.114       .  S
N192        C193   1.341   1_655  A
C194        C432   1.510   1_455  S
N195        N201   1.312       .  A
N195        N196   1.304       .  A
N195       Mn225   2.131       .  S
N196        C204   1.341       .  A
N197        N198   1.327   1_455  A
N197        N199   1.309       .  A
N197       Mn203   2.223       .  S
N198        C205   1.360   1_554  A
N199        N200   1.325   1_554  A
N199       Mn225   2.207       .  S
N200        C205   1.357   1_455  A
N201        N202   1.308   1_455  A
N201       Mn203   2.134       .  S
N202        C204   1.343   1_655  A
Mn203      Cl227   2.538       .  S
C205        C744   1.507       .  S
N206        N207   1.308       .  A
N206        N212   1.318       .  A
N206       Mn214   2.153       .  S
N207        C215   1.343       .  A
N208        N210   1.316       .  A
N208        N209   1.332       .  A
N208       Mn226   2.262       .  S
N209        C216   1.364       .  A
N210        N211   1.329       .  A
N210       Mn214   2.229       .  S
N211        C216   1.357       .  A
N212        N213   1.310       .  A
N212       Mn226   2.167       .  S
N213        C215   1.345       .  A
Mn214      Cl227   2.537       .  S
C215        C307   1.411       .  S
C216        C465   1.525       .  S
N217        N218   1.308   1_554  A
N217        N223   1.314       .  A
N217       Mn225   2.109       .  S
N218        C228   1.338   1_556  A
N219        N220   1.333       .  A
N219        N221   1.315       .  A
N219       Mn226   2.271       .  S
N220        C229   1.366       .  A
N221        N222   1.321   1_554  A
N221       Mn225   2.183       .  S
N222        C229   1.349   1_556  A
N223        N224   1.308       .  A
N223       Mn226   2.179       .  S
N224        C228   1.352       .  A
Mn225      Cl227   2.536       .  S
Mn226      Cl227   2.536       .  S
C229        C525   1.505   1_554  S
N230        N231   1.325   1_554  A
N230        N236   1.311       .  A
N230       Mn259   2.208       .  S
N231        C238   1.354       .  A
N232        N234   1.313       .  A
N232        N233   1.308   1_545  A
N232       Mn248   2.124       .  S
N233        C239   1.340   1_565  A
N234        N235   1.300       .  A
N234       Mn259   2.113       .  S
N235        C239   1.337       .  A
N236        N237   1.325   1_545  A
N236       Mn248   2.216       .  S
N237        C238   1.356   1_564  A
C238        C708   1.488   1_545  S
N240        N246   1.314       .  A
N240        N241   1.328       .  A
N240       Mn270   2.238       .  S
N241        C249   1.358       .  A
N242        N243   1.308   1_545  A
N242        N244   1.311       .  A
N242       Mn248   2.117       .  S
N243        C250   1.340   1_565  A
N244        N245   1.310       .  A
N244       Mn270   2.174       .  S
N245        C250   1.352       .  A
N246        N247   1.327   1_545  A
N246       Mn248   2.220       .  S
N247        C249   1.357   1_565  A
Mn248      Cl272   2.539       .  S
C249        C477   1.502   1_545  S
N251        N252   1.324   1_554  A
N251        N257   1.314       .  A
N251       Mn259   2.201       .  S
N252        C260   1.354   1_556  A
N253        N255   1.313       .  A
N253        N254   1.308       .  A
N253       Mn271   2.174       .  S
N254        C261   1.352       .  A
N255        N256   1.306   1_554  A
N255       Mn259   2.095       .  S
N256        C261   1.334   1_556  A
N257        N258   1.331       .  A
N257       Mn271   2.259       .  S
N258        C260   1.363       .  A
Mn259      Cl272   2.524       .  S
C260        C540   1.512   1_554  S
N262        N263   1.325       .  A
N262        N268   1.316       .  A
N262       Mn270   2.217       .  S
N263        C273   1.355       .  A
N264        N265   1.308       .  A
N264        N266   1.317       .  A
N264       Mn271   2.167       .  S
N265        C274   1.346       .  A
N266        N267   1.311       .  A
N266       Mn270   2.156       .  S
N267        C274   1.343       .  A
N268        N269   1.333       .  A
N268       Mn271   2.255       .  S
N269        C273   1.363       .  A
Mn270      Cl272   2.529       .  S
Mn271      Cl272   2.538       .  S
C273        C417   1.517       .  S
C274        C320   1.412       .  S
C275        C408   1.584       .  S
C275        C588   1.583       .  S
C275        C636   1.586       .  S
C275        C660   1.582       .  S
C276        C393   1.589       .  S
C276        C564   1.596       .  S
C276        C648   1.595       .  S
C276        C684   1.594       .  S
N277        N278   1.308       .  A
N277        N283   1.313       .  A
N277       Mn306   2.129       .  S
N278        C285   1.341       .  A
N279        N281   1.315       .  A
N279        N280   1.328       .  A
N279       Mn295   2.242       .  S
N280        C286   1.360       .  A
N281        N282   1.326       .  A
N281       Mn306   2.220       .  S
N282        C286   1.357       .  A
N283        N284   1.310       .  A
N283       Mn295   2.170       .  S
N284        C285   1.349       .  A
C286        C396   1.511       .  S
N287        N293   1.314       .  A
N287        N288   1.313       .  A
N287       Mn317   2.162       .  S
N288        C296   1.346       .  A
N289        N290   1.330       .  A
N289        N291   1.314       .  A
N289       Mn295   2.251       .  S
N290        C297   1.361       .  A
N291        N292   1.328       .  A
N291       Mn317   2.227       .  S
N292        C297   1.357       .  A
N293        N294   1.312       .  A
N293       Mn295   2.171       .  S
N294        C296   1.348       .  A
Mn295      Cl319   2.532       .  S
C296        C352   1.421       .  S
C297        C384   1.509       .  S
N298        N299   1.309       .  A
N298        N304   1.315       .  A
N298       Mn306   2.142       .  S
N299        C307   1.343       .  A
N300        N302   1.314       .  A
N300        N301   1.324       .  A
N300       Mn318   2.224       .  S
N301        C308   1.358       .  A
N302        N303   1.324       .  A
N302       Mn306   2.205       .  S
N303        C308   1.354       .  A
N304        N305   1.309       .  A
N304       Mn318   2.152       .  S
N305        C307   1.343       .  A
Mn306      Cl319   2.544       .  S
C308        C372   1.496       .  S
N309        N310   1.310       .  A
N309        N315   1.314       .  A
N309       Mn317   2.160       .  S
N310        C320   1.346       .  A
N311        N312   1.326       .  A
N311        N313   1.316       .  A
N311       Mn318   2.225       .  S
N312        C321   1.356       .  A
N313        N314   1.327       .  A
N313       Mn317   2.232       .  S
N314        C321   1.357       .  A
N315        N316   1.310       .  A
N315       Mn318   2.148       .  S
N316        C320   1.344       .  A
Mn317      Cl319   2.541       .  S
Mn318      Cl319   2.537       .  S
C321        C405   1.497       .  S
N322        N323   1.308       .  A
N322        N328   1.312       .  A
N322       Mn351   2.154       .  S
N323        C330   1.346       .  A
N324        N326   1.315       .  A
N324        N325   1.328       .  A
N324       Mn340   2.235       .  S
N325        C331   1.359       .  A
N326        N327   1.327       .  A
N326       Mn351   2.226       .  S
N327        C331   1.355       .  A
N328        N329   1.313       .  A
N328       Mn340   2.159       .  S
N329        C330   1.348       .  A
C331        C504   1.500       .  S
N332        N338   1.316       .  A
N332        N333   1.307       .  A
N332       Mn362   2.139       .  S
N333        C341   1.340       .  A
N334        N335   1.325       .  A
N334        N336   1.314       .  A
N334       Mn340   2.216       .  S
N335        C342   1.355       .  A
N336        N337   1.325       .  A
N336       Mn362   2.219       .  S
N337        C342   1.355       .  A
N338        N339   1.312       .  A
N338       Mn340   2.169       .  S
N339        C341   1.347       .  A
Mn340      Cl364   2.546       .  S
C342        C732   1.488       .  S
N343        N344   1.314       .  A
N343        N349   1.316       .  A
N343       Mn351   2.160       .  S
N344        C352   1.346       .  A
N345        N347   1.313       .  A
N345        N346   1.326       .  A
N345       Mn363   2.227       .  S
N346        C353   1.358       .  A
N347        N348   1.326       .  A
N347       Mn351   2.214       .  S
N348        C353   1.357       .  A
N349        N350   1.310       .  A
N349       Mn363   2.178       .  S
N350        C352   1.348       .  A
Mn351      Cl364   2.538       .  S
C353        C552   1.506       .  S
N354        N355   1.311       .  A
N354        N360   1.314       .  A
N354       Mn362   2.147       .  S
N355        C365   1.344       .  A
N356        N357   1.331       .  A
N356        N358   1.314       .  A
N356       Mn363   2.242       .  S
N357        C366   1.361       .  A
N358        N359   1.326       .  A
N358       Mn362   2.229       .  S
N359        C366   1.358       .  A
N360        N361   1.310       .  A
N360       Mn363   2.168       .  S
N361        C365   1.348       .  A
Mn362      Cl364   2.538       .  S
Mn363      Cl364   2.537       .  S
C366        C453   1.517       .  S
C367        C381   1.597       .  S
C367        C600   1.591       .  S
C367        C612   1.602       .  S
C367        C696   1.599       .  S
C368        C369   1.581       .  S
C368        C576   1.571       .  S
C368        C624   1.580       .  S
C368        C672   1.574       .  S
C369        C370   1.419       .  A
C369        C374   1.431       .  A
C370        C371   1.408       .  A
C370        H375   1.083       .  S
C371        C372   1.409       .  A
C371        O376   1.372       .  S
C372        C373   1.399       .  A
C373        C374   1.406       .  A
C373        H377   1.084       .  S
C374        O378   1.369       .  S
O376        H380   0.992       .  S
O378        H379   0.992       .  S
C381        C382   1.424       .  A
C381        C386   1.430       .  A
C382        C383   1.413       .  A
C382        H387   1.079       .  S
C383        C384   1.406       .  A
C383        O388   1.371       .  S
C384        C385   1.404       .  A
C385        C386   1.421       .  A
C385        H389   1.083       .  S
C386        O390   1.373       .  S
O388        H392   0.992       .  S
O390        H391   0.992       .  S
C393        C394   1.421       .  A
C393        C398   1.432       .  A
C394        C395   1.411       .  A
C394        H399   1.083       .  S
C395        C396   1.411       .  A
C395        O400   1.371       .  S
C396        C397   1.404       .  A
C397        C398   1.414       .  A
C397        H401   1.083       .  S
C398        O402   1.367       .  S
O400        H404   0.991       .  S
O402        H403   0.991       .  S
C405        C406   1.399       .  A
C405        C410   1.406       .  A
C406        C407   1.411       .  A
C406        H411   1.084       .  S
C407        C408   1.431       .  A
C407        O412   1.371       .  S
C408        C409   1.420       .  A
C409        C410   1.413       .  A
C409        H413   1.081       .  S
C410        O414   1.371       .  S
O412        H416   0.992       .  S
O414        H415   0.992       .  S
C417        C418   1.408       .  A
C417        C422   1.412       .  A
C418        C419   1.421       .  A
C418        H423   1.083       .  S
C419        C420   1.430       .  A
C419        O424   1.373       .  S
C420        C421   1.420       .  A
C421        C422   1.412       .  A
C421        H425   1.078       .  S
C422        O426   1.371       .  S
O424        H428   0.991       .  S
O426        H427   0.992       .  S
C429        C430   1.418       .  A
C429        C434   1.430       .  A
C430        C431   1.409       .  A
C430        H435   1.078       .  S
C431        C432   1.411       .  A
C431        O436   1.372       .  S
C432        C433   1.405       .  A
C433        C434   1.419       .  A
C433        H437   1.083   1_655  S
C434        O438   1.373       .  S
O436        H440   0.992       .  S
O438        H439   0.992       .  S
C441        C442   1.397       .  A
C441        C446   1.407       .  A
C442        C443   1.409       .  A
C442        H447   1.084       .  S
C443        C444   1.434       .  A
C443        O448   1.367       .  S
C444        C445   1.425       .  A
C445        C446   1.417       .  A
C445        H449   1.083       .  S
C446        O450   1.372   1_655  S
O448        H452   0.991       .  S
O450        H451   0.991       .  S
C453        C454   1.409       .  A
C453        C458   1.410       .  A
C454        C455   1.421       .  A
C454        H459   1.083       .  S
C455        C456   1.429       .  A
C455        O460   1.373       .  S
C456        C457   1.420       .  A
C457        C458   1.412       .  A
C457        H461   1.077       .  S
C458        O462   1.372       .  S
O460        H464   0.992       .  S
O462        H463   0.992       .  S
C465        C466   1.405       .  A
C465        C470   1.416       .  A
C466        C467   1.419       .  A
C466        H471   1.083       .  S
C467        C468   1.434       .  A
C467        O472   1.370       .  S
C468        C469   1.420       .  A
C469        C470   1.418       .  A
C469        H473   1.083       .  S
C470        O474   1.371       .  S
O472        H476   0.991       .  S
O474        H475   0.992       .  S
C477        C478   1.406       .  A
C477        C482   1.404       .  A
C478        C479   1.418       .  A
C478        H483   1.083   1_565  S
C479        C480   1.427       .  A
C479        O484   1.371       .  S
C480        C481   1.421       .  A
C481        C482   1.409       .  A
C481        H485   1.078       .  S
C482        O486   1.371       .  S
O484        H488   0.992       .  S
O486        H487   0.992       .  S
C489        C490   1.402       .  A
C489        C494   1.409       .  A
C490        C491   1.411       .  A
C490        H495   1.084   1_565  S
C491        C492   1.430       .  A
C491        O496   1.372       .  S
C492        C493   1.418       .  A
C493        C494   1.410       .  A
C493        H497   1.078       .  S
C494        O498   1.372       .  S
O496        H500   0.991       .  S
O498        H499   0.992       .  S
C501        C502   1.424       .  A
C501        C506   1.424       .  A
C502        C503   1.410       .  A
C502        H507   1.080       .  S
C503        C504   1.405       .  A
C503        O508   1.372       .  S
C504        C505   1.403       .  A
C505        C506   1.417       .  A
C505        H509   1.083       .  S
C506        O510   1.372       .  S
O508        H512   0.992       .  S
O510        H511   0.992       .  S
C513        C514   1.422       .  A
C513        C518   1.436       .  A
C514        C515   1.418       .  A
C514        H519   1.083       .  S
C515        C516   1.409       .  A
C515        O520   1.371       .  S
C516        C517   1.399       .  A
C517        C518   1.412       .  A
C517        H521   1.084       .  S
C518        O522   1.369       .  S
O520        H524   0.992       .  S
O522        H523   0.992       .  S
C525        C526   1.400       .  A
C525        C530   1.414       .  A
C526        C527   1.413       .  A
C526        H531   1.083   1_556  S
C527        C528   1.434       .  A
C527        O532   1.369       .  S
C528        C529   1.416       .  A
C529        C530   1.411       .  A
C529        H533   1.083       .  S
C530        O534   1.372       .  S
O532        H536   0.992       .  S
O534        H535   0.992       .  S
C537        C538   1.419       .  A
C537        C542   1.428       .  A
C538        C539   1.412       .  A
C538        H543   1.077       .  S
C539        C540   1.413       .  A
C539        O544   1.372       .  S
C540        C541   1.405       .  A
C541        C542   1.415       .  A
C541        H545   1.083       .  S
C542        O546   1.372       .  S
O544        H548   0.992       .  S
O546        H547   0.992       .  S
C549        C550   1.423       .  A
C549        C554   1.427       .  A
C550        C551   1.410       .  A
C550        H555   1.075       .  S
C551        C552   1.409       .  A
C551        O556   1.372       .  S
C552        C553   1.405       .  A
C553        C554   1.413       .  A
C553        H557   1.083       .  S
C554        O558   1.372       .  S
O556        H560   0.991       .  S
O558        H559   0.992       .  S
C561        C562   1.408       .  A
C561        C566   1.409       .  A
C562        C563   1.416       .  A
C562        H567   1.083       .  S
C563        C564   1.428       .  A
C563        O568   1.371       .  S
C564        C565   1.424       .  A
C565        C566   1.417       .  A
C565        H569   1.077       .  S
C566        O570   1.371       .  S
O568        H572   0.992       .  S
O570        H571   0.992       .  S
C573        C574   1.403       .  A
C573        C578   1.406       .  A
C574        C575   1.409       .  A
C574        H579   1.083   1_554  S
C575        C576   1.425       .  A
C575        O580   1.372       .  S
C576        C577   1.417       .  A
C577        C578   1.400       .  A
C577        H581   1.078       .  S
C578        O582   1.372   1_545  S
O580        H584   0.992       .  S
O582        H583   0.992       .  S
C585        C586   1.405       .  A
C585        C590   1.410       .  A
C586        C587   1.414       .  A
C586        H591   1.083       .  S
C587        C588   1.431       .  A
C587        O592   1.373       .  S
C588        C589   1.417       .  A
C589        C590   1.409       .  A
C589        H593   1.080       .  S
C590        O594   1.371   1_554  S
O592        H596   0.992       .  S
O594        H595   0.992       .  S
C597        C598   1.406       .  A
C597        C602   1.406       .  A
C598        C599   1.420       .  A
C598        H603   1.083   1_545  S
C599        C600   1.429       .  A
C599        O604   1.373       .  S
C600        C601   1.421       .  A
C601        C602   1.411       .  A
C601        H605   1.078       .  S
C602        O606   1.372       .  S
O604        H608   0.992       .  S
O606        H607   0.992       .  S
C609        C610   1.406       .  A
C609        C614   1.415       .  A
C610        C611   1.417       .  A
C610        H615   1.083       .  S
C611        C612   1.429       .  A
C611        O616   1.371       .  S
C612        C613   1.423       .  A
C613        C614   1.423       .  A
C613        H617   1.078       .  S
C614        O618   1.371       .  S
O616        H620   0.992       .  S
O618        H619   0.991       .  S
C621        C622   1.399       .  A
C621        C626   1.404       .  A
C622        C623   1.410       .  A
C622        H627   1.084   1_454  S
C623        C624   1.429       .  A
C623        O628   1.372       .  S
C624        C625   1.419       .  A
C625        C626   1.406       .  A
C625        H629   1.078       .  S
C626        O630   1.372       .  S
O628        H632   0.992       .  S
O630        H631   0.992       .  S
C633        C634   1.402       .  A
C633        C638   1.410   1_554  A
C634        C635   1.411       .  A
C634        H639   1.083       .  S
C635        C636   1.427       .  A
C635        O640   1.372       .  S
C636        C637   1.421       .  A
C637        C638   1.416   1_554  A
C637        H641   1.079       .  S
C638        O642   1.371       .  S
O640        H644   0.992       .  S
O642        H643   0.992       .  S
C645        C646   1.398       .  A
C645        C650   1.407       .  A
C646        C647   1.413       .  A
C646        H651   1.084       .  S
C647        C648   1.436       .  A
C647        O652   1.371       .  S
C648        C649   1.422       .  A
C649        C650   1.417       .  A
C649        H653   1.083       .  S
C650        O654   1.371   1_455  S
O652        H656   0.993       .  S
O654        H655   0.992       .  S
C657        C658   1.402       .  A
C657        C662   1.408       .  A
C658        C659   1.416       .  A
C658        H663   1.083       .  S
C659        C660   1.427       .  A
C659        O664   1.373       .  S
C660        C661   1.419       .  A
C661        C662   1.411       .  A
C661        H665   1.080       .  S
C662        O666   1.372       .  S
O664        H668   0.992       .  S
O666        H667   0.992       .  S
C669        C670   1.400       .  A
C669        C674   1.409       .  A
C670        C671   1.406       .  A
C670        H675   1.083   1_545  S
C671        C672   1.426       .  A
C671        O676   1.371       .  S
C672        C673   1.417       .  A
C673        C674   1.403       .  A
C673        H677   1.079       .  S
C674        O678   1.372   1_455  S
O676        H680   0.992       .  S
O678        H679   0.992       .  S
C681        C682   1.405       .  A
C681        C686   1.407   1_455  A
C682        C683   1.413       .  A
C682        H687   1.083       .  S
C683        C684   1.427       .  A
C683        O688   1.375       .  S
C684        C685   1.425       .  A
C685        C686   1.414   1_455  A
C685        H689   1.077       .  S
C686        O690   1.371       .  S
O688        H692   0.992       .  S
O690        H691   0.992       .  S
C693        C694   1.402   1_545  A
C693        C698   1.415       .  A
C694        C695   1.418   1_565  A
C694        H699   1.083       .  S
C695        C696   1.438       .  A
C695        O700   1.371   1_545  S
C696        C697   1.419       .  A
C697        C698   1.417       .  A
C697        H701   1.083       .  S
C698        O702   1.371       .  S
O700        H704   0.991       .  S
O702        H703   0.992       .  S
C705        C706   1.419       .  A
C705        C710   1.425       .  A
C706        C707   1.405       .  A
C706        H711   1.079       .  S
C707        C708   1.402       .  A
C707        O712   1.372       .  S
C708        C709   1.402       .  A
C709        C710   1.414       .  A
C709        H713   1.083       .  S
C710        O714   1.374       .  S
O712        H716   0.992       .  S
O714        H715   0.992       .  S
C717        C718   1.421       .  A
C717        C722   1.427       .  A
C718        C719   1.409       .  A
C718        H723   1.083       .  S
C719        C720   1.408       .  A
C719        O724   1.372       .  S
C720        C721   1.404       .  A
C721        C722   1.412       .  A
C721        H725   1.084   1_655  S
C722        O726   1.370       .  S
O724        H728   0.992       .  S
O726        H727   0.992       .  S
C729        C730   1.420       .  A
C729        C734   1.426       .  A
C730        C731   1.406       .  A
C730        H735   1.081       .  S
C731        C732   1.404       .  A
C731        O736   1.372       .  S
C732        C733   1.400       .  A
C733        C734   1.410       .  A
C733        H737   1.084       .  S
C734        O738   1.371       .  S
O736        H740   0.992       .  S
O738        H739   0.992       .  S
C741        C742   1.418       .  A
C741        C746   1.431       .  A
C742        C743   1.409       .  A
C742        H747   1.083       .  S
C743        C744   1.410       .  A
C743        O748   1.371       .  S
C744        C745   1.403       .  A
C745        C746   1.416       .  A
C745        H749   1.083   1_556  S
C746        O750   1.373       .  S
O748        H752   0.992   1_655  S
O750        H751   0.992   1_556  S
