geometry optimzed in LAMMPS
_audit_creation_date              2020-11-30 
_audit_creation_method            'lammps2cif' 
_symmetry_space_group_name_H-M    'P1' 
_symmetry_Int_Tables_number       1 
_symmetry_cell_setting            triclinic 
loop_ 
_symmetry_equiv_pos_as_xyz 
  x,y,z 
_cell_length_a                    35.90735277 
_cell_length_b                    35.92790263738827 
_cell_length_c                    71.8374411844693 
_cell_angle_alpha                 90.29206745445323 
_cell_angle_beta                  89.94731152025588 
_cell_angle_gamma                 89.8585303278138 
loop_ 
_atom_site_label 
_atom_site_type_symbol 
_atom_site_fract_x 
_atom_site_fract_y 
_atom_site_fract_z 
_atom_site_charge 
O1          O  0.96866531  0.99959499  0.09698066    -0.73200
O2          O  0.96953082  0.99913605  0.15286333    -0.74200
O3          O  0.96910194  0.05530253  0.12516196    -0.62800
O4          O  0.96925442  0.94344792  0.12471362    -0.71300
O5          O  0.03099251  0.94346911  0.12472295    -0.70800
O6          O  0.03082961  0.05506607  0.12466001    -0.62100
O7          O  0.03126262  0.99950336  0.15263573    -0.74600
O8          O  0.03039706  0.99891751  0.09672156    -0.73300
Cu9        Cu  0.96698748  0.99937407  0.12493832     1.04600
Cu10       Cu  0.03299906  0.99924521  0.12467372     1.04300
C11         C  0.99939533  0.99929178  0.08798287     0.93000
C12         C  0.00050967  0.99921476  0.16161501     0.92100
C13         C  0.99999873  0.07291304  0.12492924     0.84200
C14         C  0.00018686  0.92573893  0.12472302     0.90500
O15         O  0.03089998  0.44353259  0.12474848    -0.73200
O16         O  0.03102602  0.55512524  0.12466128    -0.74200
O17         O  0.03111772  0.49972983  0.15267847    -0.62800
O18         O  0.03060236  0.49897773  0.09675568    -0.71300
O19         O  0.96887038  0.49908964  0.09690768    -0.70800
O20         O  0.96938631  0.50012905  0.15280495    -0.62100
O21         O  0.96928940  0.55547846  0.12473110    -0.74600
O22         O  0.96916768  0.44362546  0.12497603    -0.73300
Cu23       Cu  0.03303931  0.49932847  0.12470682     1.04600
Cu24       Cu  0.96702855  0.49958008  0.12486374     1.04300
C25         C  0.00006543  0.42584890  0.12487333     0.93000
C26         C  0.00022679  0.57302156  0.12465776     0.92100
C27         C  0.00030434  0.50009586  0.16161185     0.84200
C28         C  0.99966015  0.49895833  0.08796187     0.90500
O29         O  0.53119438  0.00083445  0.09665809    -0.73200
O30         O  0.53071081  0.00067359  0.15254484    -0.74200
O31         O  0.53086065  0.94489922  0.12443524    -0.62800
O32         O  0.53097704  0.05666966  0.12474066    -0.71300
O33         O  0.46924355  0.05685566  0.12451596    -0.70800
O34         O  0.46912404  0.94517461  0.12451153    -0.62100
O35         O  0.46897736  0.00120552  0.15247170    -0.74600
O36         O  0.46945934  0.00076481  0.09658647    -0.73300
Cu37       Cu  0.53308028  0.00077364  0.12460381     1.04600
Cu38       Cu  0.46706626  0.00101871  0.12452144     1.04300
C39         C  0.50038635  0.00077906  0.08775665     0.93000
C40         C  0.49978406  0.00082332  0.16137427     0.92100
C41         C  0.49995282  0.92731301  0.12445053     0.84200
C42         C  0.50011660  0.07448802  0.12459737     0.90500
O43         O  0.46939373  0.44509863  0.12448443    -0.73200
O44         O  0.46926207  0.55677467  0.12471645    -0.74200
O45         O  0.46939075  0.50085972  0.09663555    -0.62800
O46         O  0.46931299  0.50099836  0.15250342    -0.71300
O47         O  0.53105091  0.50135860  0.15248877    -0.70800
O48         O  0.53112517  0.50033403  0.09661057    -0.62100
O49         O  0.53099746  0.55674470  0.12447686    -0.74600
O50         O  0.53112888  0.44497078  0.12467120    -0.73300
Cu51       Cu  0.46720593  0.50093847  0.12458000     1.04600
Cu52       Cu  0.53322244  0.50085234  0.12455772     1.04300
C53         C  0.50026337  0.42731061  0.12459299     0.93000
C54         C  0.50008980  0.57448455  0.12464286     0.92100
C55         C  0.50026072  0.50047891  0.08775627     0.84200
C56         C  0.50017279  0.50126015  0.16135641     0.90500
O57         O  0.96792032  0.00046223  0.84670713    -0.73200
O58         O  0.96792940  0.00284012  0.90258756    -0.74200
O59         O  0.96791808  0.05748627  0.87418579    -0.62800
O60         O  0.96784212  0.94585626  0.87508790    -0.71300
O61         O  0.02957924  0.94557971  0.87516543    -0.70800
O62         O  0.02965223  0.05736983  0.87405867    -0.62100
O63         O  0.02966384  0.00270478  0.90256641    -0.74600
O64         O  0.02965613  0.00006543  0.84668250    -0.73300
Cu65       Cu  0.96577325  0.00168060  0.87464271     1.04600
Cu66       Cu  0.03178748  0.00144278  0.87461629     1.04300
C67         C  0.99878943  0.99981580  0.83783231     0.93000
C68         C  0.99879271  0.00302414  0.91144532     0.92100
C69         C  0.99876363  0.07515326  0.87395608     0.84200
C70         C  0.99866790  0.92800045  0.87529233     0.90500
O71         O  0.96850224  0.44591829  0.87502927    -0.73200
O72         O  0.96853938  0.55750813  0.87438714    -0.74200
O73         O  0.96828773  0.50068310  0.84676318    -0.62800
O74         O  0.96889556  0.50267602  0.90264031    -0.71300
O75         O  0.03062955  0.50227759  0.90251088    -0.70800
O76         O  0.03002446  0.50046816  0.84660987    -0.62100
O77         O  0.03027321  0.55744643  0.87429904    -0.74600
O78         O  0.03023763  0.44558669  0.87480653    -0.73300
Cu79       Cu  0.96643343  0.50173061  0.87471090     1.04600
Cu80       Cu  0.03244690  0.50147846  0.87454679     1.04300
C81         C  0.99931105  0.42802882  0.87495649     0.93000
C82         C  0.99936453  0.57520606  0.87432176     0.92100
C83         C  0.99908363  0.50000872  0.83782460     0.84200
C84         C  0.99982164  0.50264220  0.91144320     0.90500
O85         O  0.46873039  0.00200186  0.90245313    -0.73200
O86         O  0.46861544  0.99977030  0.84656110    -0.74200
O87         O  0.46884768  0.94495922  0.87494019    -0.62800
O88         O  0.46868318  0.05683184  0.87407282    -0.71300
O89         O  0.53041761  0.05658371  0.87394551    -0.70800
O90         O  0.53058315  0.94504035  0.87491072    -0.62100
O91         O  0.53034992  0.99959336  0.84648555    -0.74600
O92         O  0.53046532  0.00194517  0.90235858    -0.73300
Cu93       Cu  0.46656039  0.00090003  0.87450734     1.04600
Cu94       Cu  0.53257403  0.00079998  0.87442219     1.04300
C95         C  0.49963411  0.00220295  0.91127208     0.93000
C96         C  0.49945493  0.99934123  0.83765749     0.92100
C97         C  0.49979885  0.92727923  0.87508846     0.84200
C98         C  0.49959026  0.07443090  0.87385893     0.90500
O99         O  0.46884966  0.55690921  0.87431932    -0.73200
O100        O  0.46870153  0.44501186  0.87455569    -0.74200
O101        O  0.46874767  0.50145153  0.90239644    -0.62800
O102        O  0.46864292  0.50032406  0.84648471    -0.71300
O103        O  0.53037766  0.50002330  0.84644872    -0.70800
O104        O  0.53048096  0.50126414  0.90233373    -0.62100
O105        O  0.53043858  0.44494421  0.87449222    -0.74600
O106        O  0.53058286  0.55650755  0.87427352    -0.73300
Cu107      Cu  0.46657545  0.50095837  0.87444166     1.04600
Cu108      Cu  0.53258817  0.50070384  0.87438572     1.04300
C109        C  0.49980238  0.57443776  0.87430059     0.93000
C110        C  0.49960963  0.42725509  0.87450928     0.92100
C111        C  0.49963383  0.50145754  0.91123397     0.84200
C112        C  0.49950585  0.49975641  0.83760110     0.90500
O113        O  0.00054531  0.02983890  0.34675729    -0.73200
O114        O  0.99936911  0.03151074  0.40262785    -0.74200
O115        O  0.05576011  0.03068201  0.37492018    -0.62800
O116        O  0.94412184  0.03074659  0.37443770    -0.71300
O117        O  0.94413338  0.96905474  0.37492410    -0.70800
O118        O  0.05593424  0.96897647  0.37494304    -0.62100
O119        O  0.00003627  0.96980758  0.40284022    -0.74600
O120        O  0.00003439  0.96813673  0.34701582    -0.73300
Cu121      Cu  0.99994302  0.03283250  0.37467693     1.04600
Cu122      Cu  0.00003852  0.96684970  0.37494547     1.04300
C123        C  0.00038902  0.99874285  0.33802911     0.93000
C124        C  0.99962320  0.00086873  0.41159162     0.92100
C125        C  0.07357030  0.99984242  0.37496000     0.84200
C126        C  0.92640163  0.99994377  0.37461986     0.90500
O127        O  0.00016488  0.52956774  0.34700698    -0.73200
O128        O  0.00102650  0.53041197  0.40276764    -0.74200
O129        O  0.05645894  0.52970777  0.37477463    -0.62800
O130        O  0.94465441  0.53010261  0.37515781    -0.71300
O131        O  0.94468488  0.46838847  0.37475075    -0.70800
O132        O  0.05638564  0.46800228  0.37500851    -0.62100
O133        O  0.00027036  0.46870687  0.40288035    -0.74600
O134        O  0.00085602  0.46786214  0.34694338    -0.73300
Cu135      Cu  0.00057176  0.53207782  0.37491585     1.04600
Cu136      Cu  0.00053912  0.46608652  0.37490389     1.04300
C137        C  0.00048768  0.49866633  0.33811353     0.93000
C138        C  0.00076246  0.49973400  0.41167715     0.92100
C139        C  0.07414339  0.49878530  0.37492708     0.84200
C140        C  0.92695153  0.49927601  0.37494419     0.90500
O141        O  0.44395052  0.03202610  0.37449952    -0.73200
O142        O  0.55571427  0.03213966  0.37451453    -0.74200
O143        O  0.49989152  0.03133422  0.34655102    -0.62800
O144        O  0.49974925  0.03276289  0.40244425    -0.71300
O145        O  0.49990601  0.97106021  0.40258802    -0.70800
O146        O  0.50012934  0.96963478  0.34678482    -0.62100
O147        O  0.55587836  0.97043825  0.37470438    -0.74600
O148        O  0.44420164  0.97032192  0.37464471    -0.73300
Cu149      Cu  0.49982164  0.03421951  0.37449411     1.04600
Cu150      Cu  0.50004044  0.96823682  0.37469366     1.04300
C151        C  0.42635444  0.00114292  0.37455814     0.93000
C152        C  0.57352262  0.00129062  0.37459666     0.92100
C153        C  0.50000838  0.00024894  0.33780635     0.84200
C154        C  0.49978389  0.00208037  0.41137573     0.90500
O155        O  0.50040815  0.53088202  0.40232550    -0.73200
O156        O  0.50063591  0.53002831  0.34659775    -0.74200
O157        O  0.44452236  0.53030323  0.37450531    -0.62800
O158        O  0.55634066  0.53036291  0.37454424    -0.71300
O159        O  0.55644206  0.46864346  0.37446529    -0.70800
O160        O  0.44476135  0.46857840  0.37430406    -0.62100
O161        O  0.50074358  0.46831601  0.34650706    -0.74600
O162        O  0.50029281  0.46917424  0.40246271    -0.73300
Cu163      Cu  0.50045936  0.53252063  0.37448570     1.04600
Cu164      Cu  0.50057292  0.46651972  0.37445193     1.04300
C165        C  0.50031830  0.50022727  0.41125181     0.93000
C166        C  0.50075337  0.49914127  0.33769674     0.92100
C167        C  0.42693589  0.49940342  0.37437564     0.84200
C168        C  0.57410433  0.49948620  0.37447315     0.90500
O169        O  0.99929449  0.96652338  0.65247239    -0.73200
O170        O  0.99934458  0.96740472  0.59656599    -0.74200
O171        O  0.05515787  0.96761866  0.62470723    -0.62800
O172        O  0.94334264  0.96615869  0.62460414    -0.71300
O173        O  0.94239609  0.02787102  0.62486731    -0.70800
O174        O  0.05417438  0.02936727  0.62467138    -0.62100
O175        O  0.99812439  0.02910072  0.59700212    -0.74600
O176        O  0.99829876  0.02823730  0.65276588    -0.73300
Cu177      Cu  0.99931201  0.96476708  0.62455749     1.04600
Cu178      Cu  0.99822178  0.03077148  0.62485069     1.04300
C179        C  0.99882483  0.99729874  0.66147084     0.93000
C180        C  0.99870116  0.99843921  0.58792548     0.92100
C181        C  0.07233967  0.99872711  0.62471150     0.84200
C182        C  0.92515094  0.99679027  0.62474680     0.90500
O183        O  0.05479898  0.53060264  0.62521085    -0.73200
O184        O  0.94313049  0.53143545  0.62486567    -0.74200
O185        O  0.99865440  0.52962438  0.65303941    -0.62800
O186        O  0.99921819  0.53217913  0.59712762    -0.71300
O187        O  0.99864072  0.47048307  0.59646050    -0.70800
O188        O  0.99870473  0.46793292  0.65217991    -0.62100
O189        O  0.94282596  0.46970792  0.62443182    -0.74600
O190        O  0.05464009  0.46891978  0.62427415    -0.73300
Cu191      Cu  0.99896779  0.53311455  0.62509661     1.04600
Cu192      Cu  0.99869950  0.46713248  0.62429879     1.04300
C193        C  0.07245214  0.49967647  0.62477621     0.93000
C194        C  0.92528375  0.50071046  0.62462440     0.88900
C195        C  0.99861275  0.49835110  0.66146597     0.84200
C196        C  0.99890326  0.50161624  0.58793968     0.90500
O197        O  0.44259553  0.96842880  0.62428851    -0.73200
O198        O  0.55430408  0.96731520  0.62437453    -0.74200
O199        O  0.49841211  0.96740905  0.65217477    -0.62800
O200        O  0.49881664  0.96855729  0.59626309    -0.71300
O201        O  0.49889162  0.03028426  0.59673293    -0.70800
O202        O  0.49863968  0.02911603  0.65250490    -0.62100
O203        O  0.55479836  0.02903896  0.62456067    -0.74600
O204        O  0.44289581  0.03017734  0.62439746    -0.73300
Cu205      Cu  0.49849213  0.96577929  0.62424395     1.04600
Cu206      Cu  0.49882637  0.03179323  0.62458014     1.04300
C207        C  0.42506201  0.99943235  0.62431574     0.93000
C208        C  0.57225887  0.99797446  0.62449224     0.92100
C209        C  0.49855986  0.99815826  0.66120038     0.84200
C210        C  0.49893783  0.99962839  0.58765324     0.90500
O211        O  0.49899735  0.53267915  0.59680590    -0.73200
O212        O  0.49872216  0.53039445  0.65272720    -0.74200
O213        O  0.55461852  0.53189256  0.62481484    -0.62800
O214        O  0.44289895  0.53136025  0.62467285    -0.71300
O215        O  0.44330853  0.46965009  0.62413167    -0.70800
O216        O  0.55507017  0.47020024  0.62402948    -0.62100
O217        O  0.49913962  0.46869885  0.65192979    -0.74600
O218        O  0.49919033  0.47098287  0.59615488    -0.73300
Cu219      Cu  0.49877732  0.53373391  0.62478313     1.04600
Cu220      Cu  0.49919022  0.46775536  0.62402500     1.04300
C221        C  0.49918650  0.50210847  0.58762004     0.93000
C222        C  0.49895469  0.49916050  0.66118594     0.92100
C223        C  0.57256866  0.50113917  0.62443445     0.84200
C224        C  0.42538625  0.50043064  0.62443989     0.90500
C225        C  0.88412002  0.50104597  0.62457823    -0.03700
C226        C  0.86445607  0.53378699  0.62024657    -0.09400
C227        C  0.82552287  0.53404034  0.62017844    -0.17100
C228        C  0.80580320  0.50169706  0.62456109     0.25100
C229        C  0.82513071  0.46903071  0.62893910    -0.18700
C230        C  0.86405698  0.46863581  0.62888663    -0.07700
C231        C  0.76575515  0.50199317  0.62455993    -0.14100
C232        C  0.73219741  0.50203311  0.62455965    -0.13800
C233        C  0.69214924  0.50183495  0.62454393     0.25000
C234        C  0.67290261  0.46802856  0.62414179    -0.19200
C235        C  0.63397566  0.46775889  0.62410387    -0.07700
C236        C  0.61379151  0.50137694  0.62447058    -0.03800
C237        C  0.63342057  0.53523332  0.62488086    -0.09100
C238        C  0.67235161  0.53541924  0.62491602    -0.16700
H239        H  0.87915173  0.55910868  0.61677336     0.11400
H240        H  0.81081453  0.55944874  0.61672361     0.10700
H241        H  0.81011539  0.44386468  0.63238654     0.10600
H242        H  0.87843639  0.44307489  0.63236970     0.11200
H243        H  0.68798302  0.44187208  0.62385325     0.11200
H244        H  0.61971924  0.44124027  0.62378773     0.11200
H245        H  0.61872719  0.56158646  0.62517169     0.11300
H246        H  0.68699946  0.56174544  0.62522923     0.10200
C247        C  0.38417471  0.50023943  0.62459545    -0.03700
C248        C  0.36397424  0.53337453  0.62187259    -0.09400
C249        C  0.32503283  0.53312986  0.62206645    -0.17100
C250        C  0.30580611  0.49985500  0.62506828     0.25100
C251        C  0.32565321  0.46678175  0.62783629    -0.18700
C252        C  0.36458430  0.46691825  0.62755887    -0.07700
C253        C  0.26573470  0.49961118  0.62523517    -0.14100
C254        C  0.23216271  0.49943028  0.62527509    -0.13800
C255        C  0.19208869  0.49942351  0.62520132     0.25000
C256        C  0.17259565  0.46578816  0.62421627    -0.19200
C257        C  0.13364720  0.46580609  0.62406613    -0.07700
C258        C  0.11369461  0.49954168  0.62489176    -0.03800
C259        C  0.13357771  0.53320539  0.62587662    -0.09100
C260        C  0.17250641  0.53310413  0.62603543    -0.16700
H261        H  0.37824071  0.55944460  0.61949770     0.11400
H262        H  0.30993037  0.55888145  0.61987413     0.10700
H263        H  0.31103924  0.44087939  0.63019542     0.10600
H264        H  0.37932672  0.44099053  0.62978057     0.11200
H265        H  0.18749516  0.43955232  0.62355250     0.11200
H266        H  0.11919359  0.43942806  0.62329264     0.11200
H267        H  0.11908162  0.55964410  0.62654103     0.11300
H268        H  0.18732749  0.55930093  0.62679571     0.10200
C269        C  0.88393493  0.99632245  0.62476817    -0.03700
C270        C  0.86364210  0.02914754  0.62139462    -0.09400
C271        C  0.82471472  0.02873460  0.62137747    -0.17100
C272        C  0.80555224  0.99561184  0.62482711     0.25100
C273        C  0.82547664  0.96282151  0.62824912    -0.18700
C274        C  0.86443247  0.96311687  0.62817145    -0.07700
C275        C  0.76547097  0.99535713  0.62483829    -0.14100
C276        C  0.73189349  0.99559027  0.62479413    -0.13800
C277        C  0.69181511  0.99619344  0.62470773     0.25000
C278        C  0.67181772  0.96398035  0.62901115    -0.19200
C279        C  0.63288408  0.96451836  0.62888168    -0.07700
C280        C  0.61345232  0.99741472  0.62456592    -0.03800
C281        C  0.63378279  0.02969177  0.62031460    -0.09100
C282        C  0.67272769  0.02901504  0.62032669    -0.16700
H283        H  0.87783594  0.05510946  0.61865128     0.11400
H284        H  0.80956417  0.05425944  0.61867936     0.10700
H285        H  0.81091280  0.93703596  0.63096825     0.10600
H286        H  0.87926069  0.93743521  0.63089323     0.11200
H287        H  0.68631197  0.93844688  0.63245972     0.11200
H288        H  0.61800346  0.93927580  0.63230175     0.11200
H289        H  0.61960178  0.05536649  0.61684007     0.11300
H290        H  0.68794483  0.05408887  0.61693274     0.10200
C291        C  0.11346589  0.99926053  0.62477655    -0.03700
C292        C  0.13288552  0.03014243  0.61780992    -0.09400
C293        C  0.17183396  0.03047794  0.61772906    -0.17100
C294        C  0.19179634  0.00017369  0.62480243     0.25100
C295        C  0.17265450  0.96945077  0.63190585    -0.18700
C296        C  0.13371165  0.96887915  0.63180106    -0.07700
C297        C  0.23188704  0.00050492  0.62468563    -0.14100
C298        C  0.26547099  0.00054746  0.62454929    -0.13800
C299        C  0.30556420  0.00027148  0.62441690     0.25000
C300        C  0.32500559  0.96921044  0.63101329    -0.19200
C301        C  0.36394703  0.96881784  0.63085952    -0.07700
C302        C  0.38391411  0.99970546  0.62428817    -0.03800
C303        C  0.36418911  0.03085277  0.61773650    -0.09100
C304        C  0.32523041  0.03102677  0.61771268    -0.16700
H305        H  0.11795817  0.05379726  0.61220956     0.11400
H306        H  0.18636730  0.05434543  0.61214397     0.10700
H307        H  0.18782443  0.94590241  0.63747386     0.10600
H308        H  0.11942708  0.94487488  0.63738461     0.11200
H309        H  0.31006679  0.94529650  0.63627499     0.11200
H310        H  0.37844364  0.94456418  0.63609261     0.11200
H311        H  0.37888260  0.05489441  0.61246635     0.11300
H312        H  0.31046267  0.05515626  0.61250644     0.10200
C313        C  0.50029367  0.50086929  0.43185391    -0.03700
C314        C  0.49610550  0.46778979  0.44202979    -0.09400
C315        C  0.49605060  0.46860691  0.46149601    -0.17100
C316        C  0.50028864  0.50241538  0.47102022     0.25100
C317        C  0.50452440  0.53544220  0.46102365    -0.18700
C318        C  0.50447245  0.53472166  0.44157241    -0.07700
C319        C  0.50027330  0.50322265  0.49104142    -0.14100
C320        C  0.50020307  0.50362455  0.50781792    -0.13800
C321        C  0.50001064  0.50339838  0.52784039     0.25000
C322        C  0.50100447  0.53690372  0.53785075    -0.19200
C323        C  0.50071109  0.53657094  0.55732057    -0.07700
C324        C  0.49944708  0.50264841  0.56701223    -0.03800
C325        C  0.49850163  0.46913367  0.55679948    -0.09100
C326        C  0.49876285  0.46955075  0.53735128    -0.16700
H327        H  0.49273339  0.44131917  0.43496358     0.11400
H328        H  0.49270938  0.44287935  0.46911502     0.10700
H329        H  0.50785939  0.56175562  0.46826088     0.10600
H330        H  0.50784970  0.56066208  0.43415644     0.11200
H331        H  0.50198920  0.56326848  0.53061364     0.11200
H332        H  0.50151277  0.56283808  0.56476603     0.11200
H333        H  0.49751382  0.44255826  0.56382312     0.11300
H334        H  0.49797841  0.44345908  0.52973157     0.10200
C335        C  0.49914854  0.00025987  0.56707832    -0.03700
C336        C  0.49106576  0.03338123  0.55750688    -0.09400
C337        C  0.49122502  0.03405710  0.53805943    -0.17100
C338        C  0.49968711  0.00175301  0.52794335     0.25100
C339        C  0.50791757  0.96870652  0.53733608    -0.18700
C340        C  0.50754272  0.96789787  0.55679297    -0.07700
C341        C  0.49979024  0.00248258  0.50793301    -0.14100
C342        C  0.49977043  0.00286415  0.49116296    -0.13800
C343        C  0.49970462  0.00278408  0.47114684     0.25000
C344        C  0.49936692  0.96900049  0.46138680    -0.19200
C345        C  0.49936760  0.96876358  0.44193610    -0.07700
C346        C  0.49969929  0.00239492  0.43198109    -0.03800
C347        C  0.49998594  0.03624530  0.44192645    -0.09100
C348        C  0.49999462  0.03639785  0.46139280    -0.16700
H349        H  0.48434829  0.05870783  0.56504188     0.11400
H350        H  0.48474104  0.05975926  0.53091891     0.10700
H351        H  0.51457928  0.94356223  0.52962246     0.10600
H352        H  0.51408411  0.94205688  0.56377673     0.11200
H353        H  0.49912364  0.94282634  0.46881236     0.11200
H354        H  0.49911827  0.94224212  0.43470956     0.11200
H355        H  0.50024052  0.06260029  0.43468234     0.11300
H356        H  0.50024690  0.06271012  0.46882810     0.10200
C357        C  0.00102272  0.50027077  0.43226835    -0.03700
C358        C  0.99622971  0.46721662  0.44239805    -0.09400
C359        C  0.99608049  0.46794543  0.46185840    -0.17100
C360        C  0.00085133  0.50163540  0.47141556     0.25100
C361        C  0.00591653  0.53460174  0.46146911    -0.18700
C362        C  0.00595338  0.53397283  0.44202057    -0.07700
C363        C  0.00033233  0.50242353  0.49142127    -0.14100
C364        C  0.99979104  0.50288290  0.50818695    -0.13800
C365        C  0.99924886  0.50273944  0.52819369     0.25000
C366        C  0.99804784  0.53629475  0.53816037    -0.19200
C367        C  0.99786882  0.53603338  0.55762804    -0.07700
C368        C  0.99886466  0.50213055  0.56734448    -0.03800
C369        C  0.99988504  0.46856906  0.55717029    -0.09100
C370        C  0.00009757  0.46891545  0.53773013    -0.16700
H371        H  0.99233466  0.44085299  0.43530000     0.11400
H372        H  0.99214073  0.44226463  0.46944552     0.10700
H373        H  0.00971724  0.56081030  0.46874338     0.10600
H374        H  0.00988405  0.55986739  0.43463319     0.11200
H375        H  0.99733759  0.56263699  0.53089173     0.11200
H376        H  0.99698374  0.56232903  0.56505069     0.11200
H377        H  0.00064500  0.44200802  0.56421785     0.11300
H378        H  0.00100878  0.44279115  0.53013706     0.10200
C379        C  0.61530754  0.49944660  0.37434484    -0.03700
C380        C  0.63517352  0.53249403  0.37773020    -0.09400
C381        C  0.67410759  0.53242557  0.37761352    -0.17100
C382        C  0.69366899  0.49942629  0.37402016     0.25100
C383        C  0.67415940  0.46644068  0.37055978    -0.18700
C384        C  0.63522082  0.46639278  0.37076713    -0.07700
C385        C  0.73373829  0.49938766  0.37400495    -0.14100
C386        C  0.76730737  0.49939871  0.37412863    -0.13800
C387        C  0.80737397  0.49937765  0.37437963     0.25000
C388        C  0.82704568  0.46635986  0.37099872    -0.19200
C389        C  0.86597488  0.46626706  0.37127621    -0.07700
C390        C  0.88573902  0.49930765  0.37484826    -0.03800
C391        C  0.86571348  0.53237220  0.37822688    -0.09100
C392        C  0.82677132  0.53234993  0.37803525    -0.16700
H393        H  0.62064633  0.55835008  0.38058831     0.11400
H394        H  0.68894750  0.55809863  0.38034421     0.10700
H395        H  0.68903831  0.44075099  0.36773384     0.10600
H396        H  0.62072532  0.44054997  0.36801794     0.11200
H397        H  0.81229805  0.44068749  0.36814027     0.11200
H398        H  0.88058187  0.44039798  0.36855579     0.11200
H399        H  0.88011932  0.55821329  0.38109699     0.11300
H400        H  0.81180123  0.55804698  0.38071702     0.10200
C401        C  0.11536140  0.49861262  0.37502628    -0.03700
C402        C  0.13529049  0.53208023  0.37695855    -0.09400
C403        C  0.17422108  0.53189285  0.37701375    -0.17100
C404        C  0.19372694  0.49832969  0.37509051     0.25100
C405        C  0.17417341  0.46488536  0.37319905    -0.18700
C406        C  0.13523638  0.46497928  0.37319687    -0.07700
C407        C  0.23378655  0.49826215  0.37496137    -0.14100
C408        C  0.26734908  0.49840118  0.37478866    -0.13800
C409        C  0.30740584  0.49871112  0.37457574     0.25000
C410        C  0.32718950  0.46617444  0.37028854    -0.19200
C411        C  0.36612030  0.46637751  0.37022238    -0.07700
C412        C  0.38574755  0.49924786  0.37434139    -0.03800
C413        C  0.36561674  0.53187811  0.37851373    -0.09100
C414        C  0.32668128  0.53154443  0.37868595    -0.16700
H415        H  0.12082470  0.55840593  0.37846912     0.11400
H416        H  0.18910258  0.55793276  0.37851618     0.10700
H417        H  0.18901603  0.43874751  0.37169272     0.10600
H418        H  0.12072567  0.43875745  0.37166553     0.11200
H419        H  0.31253142  0.44063472  0.36703594     0.11200
H420        H  0.38083921  0.44086992  0.36685650     0.11200
H421        H  0.37994530  0.55756050  0.38181522     0.11300
H422        H  0.31161942  0.55687360  0.38204543     0.10200
C423        C  0.99860244  0.99904853  0.56732275    -0.03700
C424        C  0.99967137  0.96570034  0.55698072    -0.09400
C425        C  0.99959047  0.96649133  0.53751850    -0.17100
C426        C  0.99842503  0.00055378  0.52816425     0.25100
C427        C  0.99733136  0.03384837  0.53832263    -0.18700
C428        C  0.99742293  0.03314267  0.55776797    -0.07700
C429        C  0.99843622  0.00136461  0.50815054    -0.14100
C430        C  0.99856125  0.00184724  0.49137901    -0.13800
C431        C  0.99885856  0.00176189  0.47135949     0.25000
C432        C  0.99475589  0.03510068  0.46157009    -0.19200
C433        C  0.99509219  0.03490313  0.44210070    -0.07700
C434        C  0.99942697  0.00127245  0.43219341    -0.03800
C435        C  0.00352020  0.96792595  0.44218091    -0.09100
C436        C  0.00328238  0.96821832  0.46163037    -0.16700
H437        H  0.00059661  0.93902008  0.56391058     0.11400
H438        H  0.00045491  0.94054927  0.52977093     0.10700
H439        H  0.99642750  0.06036310  0.53121522     0.10600
H440        H  0.99656424  0.05930993  0.56530460     0.11200
H441        H  0.99129226  0.06122613  0.46897850     0.11200
H442        H  0.99180348  0.06102331  0.43482189     0.11200
H443        H  0.00701604  0.94159785  0.43497769     0.11300
H444        H  0.00653040  0.94226633  0.46908065     0.10200
C445        C  0.88517419  0.00009583  0.37445359    -0.03700
C446        C  0.86517775  0.96645925  0.37460732    -0.09400
C447        C  0.82623906  0.96670290  0.37444328    -0.17100
C448        C  0.80680474  0.00050207  0.37412432     0.25100
C449        C  0.82642714  0.03408894  0.37394896    -0.18700
C450        C  0.86535200  0.03392893  0.37411191    -0.07700
C451        C  0.76674558  0.00074469  0.37406010    -0.14100
C452        C  0.73318159  0.00096971  0.37409746    -0.13800
C453        C  0.69312235  0.00109913  0.37422640     0.25000
C454        C  0.67358374  0.03483616  0.37476778    -0.19200
C455        C  0.63464349  0.03495667  0.37490913    -0.07700
C456        C  0.61475113  0.00125811  0.37452394    -0.03800
C457        C  0.63467826  0.96748909  0.37400565    -0.09100
C458        C  0.67360375  0.96745237  0.37384955    -0.16700
H459        H  0.87958851  0.93995586  0.37486103     0.11400
H460        H  0.81129963  0.94054019  0.37458443     0.10700
H461        H  0.81164237  0.06040881  0.37370553     0.10600
H462        H  0.87989121  0.06029556  0.37397833     0.11200
H463        H  0.68844120  0.06104413  0.37507748     0.11200
H464        H  0.62014951  0.06141415  0.37532482     0.11200
H465        H  0.62021970  0.94108032  0.37368652     0.11300
H466        H  0.68847114  0.94118015  0.37343364     0.10200
C467        C  0.38513718  0.00103547  0.37452841    -0.03700
C468        C  0.36544095  0.96724668  0.37376916    -0.09400
C469        C  0.32651863  0.96713842  0.37377936    -0.17100
C470        C  0.30678646  0.00073190  0.37456932     0.25100
C471        C  0.32609386  0.03448779  0.37530699    -0.18700
C472        C  0.36502723  0.03468124  0.37527515    -0.07700
C473        C  0.26674239  0.00053997  0.37466794    -0.14100
C474        C  0.23318846  0.00033433  0.37477599    -0.13800
C475        C  0.19314418  0.00017412  0.37489359     0.25000
C476        C  0.17343454  0.03380294  0.37468421    -0.19200
C477        C  0.13451269  0.03372058  0.37473840    -0.07700
C478        C  0.11479076  0.99992261  0.37499526    -0.03800
C479        C  0.13487917  0.96624659  0.37523405    -0.09100
C480        C  0.17381388  0.96641310  0.37518573    -0.16700
H481        H  0.38007729  0.94088080  0.37315464     0.11400
H482        H  0.31182192  0.94085543  0.37319177     0.10700
H483        H  0.31106069  0.06065202  0.37592463     0.10600
H484        H  0.37934582  0.06114924  0.37588081     0.11200
H485        H  0.18814835  0.06009147  0.37446004     0.11200
H486        H  0.11989790  0.06011531  0.37454858     0.11200
H487        H  0.12054320  0.93977144  0.37544421     0.11300
H488        H  0.18883017  0.94022130  0.37535657     0.10200
C489        C  0.49952822  0.49855409  0.81698497    -0.03700
C490        C  0.53326360  0.49602682  0.80706054    -0.09400
C491        C  0.53328396  0.49472321  0.78760333    -0.17100
C492        C  0.49964836  0.49595613  0.77780327     0.25100
C493        C  0.46594357  0.49837515  0.78753738    -0.18700
C494        C  0.46584044  0.49963612  0.80699897    -0.07700
C495        C  0.49973877  0.49526589  0.75776760    -0.14100
C496        C  0.49974053  0.49535462  0.74098329    -0.13800
C497        C  0.49961385  0.49623213  0.72095448     0.25000
C498        C  0.49525158  0.46329968  0.71071323    -0.19200
C499        C  0.49504648  0.46422489  0.69125543    -0.07700
C500        C  0.49908795  0.49818591  0.68178696    -0.03800
C501        C  0.50339564  0.53114495  0.69221266    -0.09100
C502        C  0.50371721  0.53012390  0.71166609    -0.16700
H503        H  0.55966170  0.49502394  0.81431768     0.11400
H504        H  0.55953882  0.49286235  0.78020601     0.10700
H505        H  0.43974276  0.49938986  0.78008456     0.10600
H506        H  0.43940249  0.50154090  0.81420825     0.11200
H507        H  0.49199818  0.43691550  0.71776173     0.11200
H508        H  0.49158781  0.43837715  0.68363991     0.11200
H509        H  0.50668512  0.55769982  0.68534865     0.11300
H510        H  0.50714073  0.55578071  0.71946296     0.10200
C511        C  0.49939765  0.99864176  0.81703801    -0.03700
C512        C  0.53313156  0.99797174  0.80704770    -0.09400
C513        C  0.53305559  0.99754380  0.78758308    -0.17100
C514        C  0.49932566  0.99777533  0.77784461     0.25100
C515        C  0.46562701  0.99837548  0.78764330    -0.18700
C516        C  0.46562192  0.99879520  0.80711002    -0.07700
C517        C  0.49930054  0.99752809  0.75780971    -0.14100
C518        C  0.49926859  0.99747266  0.74102637    -0.13800
C519        C  0.49915461  0.99760973  0.72099329     0.25000
C520        C  0.50178813  0.96409502  0.71106212    -0.19200
C521        C  0.50153591  0.96421531  0.69159654    -0.07700
C522        C  0.49871903  0.99794110  0.68181041    -0.03800
C523        C  0.49616545  0.03149230  0.69193004    -0.09100
C524        C  0.49634367  0.03128409  0.71139000    -0.16700
H525        H  0.55960047  0.99782925  0.81425741     0.11400
H526        H  0.55930502  0.99708486  0.78013262     0.10700
H527        H  0.43935202  0.99857045  0.78023885     0.10600
H528        H  0.43918238  0.99931315  0.81436935     0.11200
H529        H  0.50401532  0.93786875  0.71836140     0.11200
H530        H  0.50364537  0.93792749  0.68422584     0.11200
H531        H  0.49393242  0.05791076  0.68482418     0.11300
H532        H  0.49427669  0.05738939  0.71894312     0.10200
C533        C  0.50009063  0.88606448  0.87542672    -0.03700
C534        C  0.53401133  0.86637671  0.87603105    -0.09400
C535        C  0.53433091  0.82746257  0.87614559    -0.17100
C536        C  0.50081097  0.80770821  0.87565537     0.25100
C537        C  0.46693123  0.82701637  0.87515529    -0.18700
C538        C  0.46653019  0.86593785  0.87505322    -0.07700
C539        C  0.50114842  0.76764850  0.87551078    -0.14100
C540        C  0.50114331  0.73409015  0.87526613    -0.13800
C541        C  0.50081584  0.69403342  0.87492127     0.25000
C542        C  0.46694630  0.67488863  0.87419742    -0.19200
C543        C  0.46654872  0.63596406  0.87394265    -0.07700
C544        C  0.50010241  0.61566974  0.87439262    -0.03800
C545        C  0.53401942  0.63520223  0.87505811    -0.09100
C546        C  0.53433503  0.67411630  0.87532881    -0.16700
H547        H  0.56032976  0.88101312  0.87636833     0.11400
H548        H  0.56071765  0.81279359  0.87655028     0.10700
H549        H  0.44081789  0.81198387  0.87477924     0.10600
H550        H  0.43996580  0.88023290  0.87459953     0.11200
H551        H  0.44083403  0.69004832  0.87385988     0.11200
H552        H  0.43998775  0.62179452  0.87341391     0.11200
H553        H  0.56033430  0.62044111  0.87543162     0.11300
H554        H  0.56071511  0.68865715  0.87588373     0.10200
C555        C  0.49977900  0.11565075  0.87355461    -0.03700
C556        C  0.46616837  0.13586513  0.87395656    -0.09400
C557        C  0.46647536  0.17478779  0.87385717    -0.17100
C558        C  0.50031001  0.19400843  0.87333465     0.25100
C559        C  0.53387786  0.17416823  0.87284243    -0.18700
C560        C  0.53365250  0.13525521  0.87295242    -0.07700
C561        C  0.50056383  0.23406613  0.87342820    -0.14100
C562        C  0.50056505  0.26762394  0.87361315    -0.13800
C563        C  0.50032489  0.30768028  0.87389710     0.25000
C564        C  0.53387695  0.32734918  0.87323863    -0.19200
C565        C  0.53365763  0.36626088  0.87349578    -0.07700
C566        C  0.49980456  0.38603529  0.87439607    -0.03800
C567        C  0.46621503  0.36599521  0.87507214    -0.09100
C568        C  0.46651680  0.32707046  0.87483498    -0.16700
H569        H  0.43963729  0.12163704  0.87441713     0.11400
H570        H  0.44032568  0.18988797  0.87423964     0.10700
H571        H  0.56023068  0.18876994  0.87242644     0.10600
H572        H  0.56000772  0.12055375  0.87260495     0.11200
H573        H  0.56020835  0.31261530  0.87251052     0.11200
H574        H  0.55999486  0.38082980  0.87293350     0.11200
H575        H  0.43970330  0.38036250  0.87578153     0.11300
H576        H  0.44038071  0.31210236  0.87536463     0.10200
C577        C  0.99892621  0.49842952  0.81721833    -0.03700
C578        C  0.96521075  0.50046168  0.80729539    -0.09400
C579        C  0.96511151  0.49884916  0.78784231    -0.17100
C580        C  0.99863520  0.49508653  0.77805628     0.25100
C581        C  0.03229374  0.49286777  0.78779352    -0.18700
C582        C  0.03248029  0.49455483  0.80724403    -0.07700
C583        C  0.99854353  0.49413176  0.75802759    -0.14100
C584        C  0.99848182  0.49414187  0.74124616    -0.13800
C585        C  0.99844333  0.49511098  0.72122383     0.25000
C586        C  0.00065435  0.52924719  0.71199856    -0.19200
C587        C  0.00063877  0.53036345  0.69254918    -0.07700
C588        C  0.99847773  0.49726488  0.68206418    -0.03800
C589        C  0.99624572  0.46306132  0.69147278    -0.09100
C590        C  0.99620411  0.46203158  0.71092756    -0.16700
H591        H  0.93891247  0.50343070  0.81454760     0.11400
H592        H  0.93890082  0.50065713  0.78043604     0.10700
H593        H  0.05840891  0.48996314  0.78035178     0.10600
H594        H  0.05888394  0.49275986  0.81445813     0.11200
H595        H  0.00240601  0.55502057  0.71984279     0.11200
H596        H  0.00242404  0.55711834  0.68573850     0.11200
H597        H  0.99448132  0.43708691  0.68381529     0.11300
H598        H  0.99444756  0.43545376  0.71792958     0.10200
C599        C  0.99888921  0.99711386  0.68206205    -0.03700
C600        C  0.99253248  0.03017654  0.69216503    -0.09400
C601        C  0.99245879  0.02994446  0.71162223    -0.17100
C602        C  0.99889638  0.99675831  0.72122212     0.25100
C603        C  0.00537223  0.96375298  0.71130066    -0.18700
C604        C  0.00529463  0.96387545  0.69184033    -0.07700
C605        C  0.99885021  0.99660339  0.74124426    -0.14100
C606        C  0.99880560  0.99671129  0.75802126    -0.13800
C607        C  0.99878814  0.99717220  0.77804542     0.25000
C608        C  0.96508157  0.99856484  0.78781527    -0.19200
C609        C  0.96504130  0.99934986  0.80727573    -0.07700
C610        C  0.99878879  0.99878760  0.81722142    -0.03800
C611        C  0.03253292  0.99728835  0.80725896    -0.09100
C612        C  0.03249107  0.99648168  0.78779876    -0.16700
H613        H  0.98740142  0.05618036  0.68504434     0.11400
H614        H  0.98737821  0.05564255  0.71917519     0.10700
H615        H  0.01045618  0.93792420  0.71860295     0.10600
H616        H  0.01042672  0.93800494  0.68446327     0.11200
H617        H  0.93883162  0.99912303  0.78039305     0.11200
H618        H  0.93859742  0.00049071  0.81451607     0.11200
H619        H  0.05897784  0.99677468  0.81448632     0.11300
H620        H  0.05874305  0.99540154  0.78036322     0.10200
C621        C  0.99853220  0.88679325  0.87565743    -0.03700
C622        C  0.03215353  0.86672876  0.87680396    -0.09400
C623        C  0.03197498  0.82781557  0.87702064    -0.17100
C624        C  0.99825935  0.80845076  0.87607184     0.25100
C625        C  0.96466493  0.82813992  0.87500027    -0.18700
C626        C  0.96475987  0.86705358  0.87480870    -0.07700
C627        C  0.99818682  0.76839634  0.87598418    -0.14100
C628        C  0.99830819  0.73484187  0.87571049    -0.13800
C629        C  0.99859903  0.69479251  0.87524078     0.25000
C630        C  0.96504458  0.67513162  0.87449991    -0.19200
C631        C  0.96528824  0.63622207  0.87409634    -0.07700
C632        C  0.99916946  0.61643779  0.87442073    -0.03800
C633        C  0.03277029  0.63647799  0.87507824    -0.09100
C634        C  0.03244471  0.67540107  0.87549535    -0.16700
H635        H  0.05860624  0.88106938  0.87751518     0.11400
H636        H  0.05814151  0.81283494  0.87785915     0.10700
H637        H  0.93840510  0.81341801  0.87424702     0.10600
H638        H  0.93840603  0.88164674  0.87391051     0.11200
H639        H  0.93868639  0.68987021  0.87426972     0.11200
H640        H  0.93893926  0.62166088  0.87357936     0.11200
H641        H  0.05930571  0.62210907  0.87535687     0.11300
H642        H  0.05858622  0.69036396  0.87605067     0.10200
C643        C  0.99864985  0.11637948  0.87362788    -0.03700
C644        C  0.03227196  0.13629878  0.87253003    -0.09400
C645        C  0.03209072  0.17522671  0.87243400    -0.17100
C646        C  0.99837017  0.19475415  0.87345026     0.25100
C647        C  0.96477724  0.17520664  0.87444826    -0.18700
C648        C  0.96487530  0.13628715  0.87451958    -0.07700
C649        C  0.99827207  0.23482232  0.87364362    -0.14100
C650        C  0.99833251  0.26838335  0.87394091    -0.13800
C651        C  0.99858671  0.30844418  0.87434806     0.25000
C652        C  0.96503661  0.32826239  0.87529458    -0.19200
C653        C  0.96525704  0.36717890  0.87557809    -0.07700
C654        C  0.99910926  0.38680583  0.87493101    -0.03800
C655        C  0.03270376  0.36661353  0.87406896    -0.09100
C656        C  0.03240172  0.32769225  0.87376967    -0.16700
H657        H  0.05872621  0.12183298  0.87178160     0.11400
H658        H  0.05825918  0.19008999  0.87163977     0.10700
H659        H  0.93851098  0.19004389  0.87524083     0.10600
H660        H  0.93851553  0.12181838  0.87537464     0.11200
H661        H  0.93869941  0.31364103  0.87577050     0.11200
H662        H  0.93891796  0.38186636  0.87626363     0.11200
H663        H  0.05921955  0.38086093  0.87354121     0.11300
H664        H  0.05853929  0.31261697  0.87304582     0.10200
C665        C  0.50014790  0.50135771  0.18196307    -0.03700
C666        C  0.46645984  0.49906047  0.19191523    -0.09400
C667        C  0.46649782  0.49878851  0.21137445    -0.17100
C668        C  0.50013977  0.50086957  0.22113140     0.25100
C669        C  0.53377198  0.50335624  0.21137142    -0.18700
C670        C  0.53381921  0.50357413  0.19191262    -0.07700
C671        C  0.50017698  0.50030682  0.24114806    -0.14100
C672        C  0.50031500  0.49983680  0.25791958    -0.13800
C673        C  0.50056193  0.49954925  0.27793722     0.25000
C674        C  0.49703916  0.46594580  0.28754150    -0.19200
C675        C  0.49723598  0.46571500  0.30700657    -0.07700
C676        C  0.50084816  0.49917971  0.31709850    -0.03800
C677        C  0.50441697  0.53280093  0.30729949    -0.09100
C678        C  0.50431449  0.53293828  0.28784951    -0.16700
H679        H  0.44007646  0.49730526  0.18467931     0.11400
H680        H  0.44030357  0.49686982  0.21880416     0.10700
H681        H  0.55996813  0.50503410  0.21879987     0.10600
H682        H  0.56020894  0.50545442  0.18467566     0.11200
H683        H  0.49410752  0.43993832  0.27998939     0.11200
H684        H  0.49437628  0.43939308  0.31413712     0.11200
H685        H  0.50735635  0.55901620  0.31465011     0.11300
H686        H  0.50711699  0.55909514  0.28054482     0.10200
C687        C  0.50025228  0.50023510  0.06713405    -0.03700
C688        C  0.46656931  0.50261764  0.05720291    -0.09400
C689        C  0.46658746  0.50260099  0.03773701    -0.17100
C690        C  0.50020361  0.50013612  0.02793257     0.25100
C691        C  0.53384512  0.49761650  0.03767425    -0.18700
C692        C  0.53391042  0.49768983  0.05714470    -0.07700
C693        C  0.50016324  0.50035262  0.00789063    -0.14100
C694        C  0.50004712  0.50065998  0.99110365    -0.13800
C695        C  0.49991364  0.50105852  0.97106260     0.25000
C696        C  0.53355008  0.50229512  0.96123518    -0.19200
C697        C  0.53348448  0.50252444  0.94176932    -0.07700
C698        C  0.49970081  0.50154546  0.93186004    -0.03800
C699        C  0.46601469  0.50041657  0.94187506    -0.09100
C700        C  0.46616121  0.50015712  0.96134458    -0.16700
H701        H  0.44019268  0.50463213  0.06446123     0.11400
H702        H  0.44038274  0.50457195  0.03033591     0.10700
H703        H  0.56003262  0.49566325  0.03022297     0.10600
H704        H  0.56030151  0.49573799  0.06435993     0.11200
H705        H  0.55984090  0.50302634  0.96861753     0.11200
H706        H  0.55988818  0.50343159  0.93449403     0.11200
H707        H  0.43954039  0.49961578  0.93468057     0.11300
H708        H  0.43995428  0.49920111  0.96881394     0.10200
C709        C  0.49994947  0.99966625  0.31719567    -0.03700
C710        C  0.49989076  0.03311469  0.30709219    -0.09400
C711        C  0.49971972  0.03251863  0.28763304    -0.17100
C712        C  0.49960172  0.99855475  0.27801437     0.25100
C713        C  0.49969052  0.96512903  0.28792735    -0.18700
C714        C  0.49986551  0.96564193  0.30739188    -0.07700
C715        C  0.49941909  0.99808290  0.25798319    -0.14100
C716        C  0.49934957  0.99817523  0.24120143    -0.13800
C717        C  0.49942676  0.99876839  0.22117211     0.25000
C718        C  0.46579917  0.00076906  0.21139367    -0.19200
C719        C  0.46587208  0.00153440  0.19193210    -0.07700
C720        C  0.49965570  0.00034419  0.18199195    -0.03800
C721        C  0.53331959  0.99839003  0.19196411    -0.09100
C722        C  0.53316416  0.99759112  0.21142162    -0.16700
H723        H  0.49995781  0.05975607  0.31420832     0.11400
H724        H  0.49966799  0.05855729  0.28009005     0.10700
H725        H  0.49961339  0.93867648  0.28061718     0.10600
H726        H  0.49990582  0.93940834  0.31474664     0.11200
H727        H  0.43952171  0.00174678  0.21880919     0.11200
H728        H  0.43948730  0.00305433  0.18468544     0.11200
H729        H  0.55979058  0.99738413  0.18474419     0.11300
H730        H  0.55935949  0.99606901  0.21885776     0.10200
C731        C  0.49976102  0.00249206  0.93189301    -0.03700
C732        C  0.53357507  0.00106565  0.94175861    -0.09400
C733        C  0.53371022  0.00083332  0.96121953    -0.17100
C734        C  0.50011486  0.00206984  0.97108747     0.25100
C735        C  0.46633056  0.00362161  0.96141631    -0.18700
C736        C  0.46611361  0.00381783  0.94194602    -0.07700
C737        C  0.50033838  0.00167225  0.99112323    -0.14100
C738        C  0.50054773  0.00133655  0.00790674    -0.13800
C739        C  0.50058129  0.00102658  0.02794324     0.25000
C740        C  0.46687706  0.99976441  0.03770643    -0.19200
C741        C  0.46679321  0.99965051  0.05716781    -0.07700
C742        C  0.50049579  0.00076935  0.06713744    -0.03800
C743        C  0.53426012  0.00195407  0.05718980    -0.09100
C744        C  0.53426270  0.00209709  0.03771957    -0.16700
H745        H  0.55994776  0.99997118  0.93445214     0.11400
H746        H  0.56002157  0.99962144  0.96856720     0.10700
H747        H  0.44015531  0.00460756  0.96892163     0.10600
H748        H  0.43961847  0.00494515  0.93478183     0.11200
H749        H  0.44064426  0.99891503  0.03027560     0.11200
H750        H  0.44033558  0.99868946  0.06439193     0.11200
H751        H  0.56067469  0.00285202  0.06443639     0.11300
H752        H  0.56052099  0.00308570  0.03029685     0.10200
C753        C  0.49996479  0.61570814  0.12476130    -0.03700
C754        C  0.46620393  0.63558167  0.12591357    -0.09400
C755        C  0.46609240  0.67450095  0.12596517    -0.17100
C756        C  0.49965831  0.69406864  0.12484614     0.25100
C757        C  0.53338366  0.67457506  0.12374602    -0.18700
C758        C  0.53357891  0.63565313  0.12371950    -0.07700
C759        C  0.49949972  0.73412517  0.12475601    -0.14100
C760        C  0.49947203  0.76768083  0.12463615    -0.13800
C761        C  0.49957748  0.80773569  0.12450572     0.25000
C762        C  0.53332181  0.82706551  0.12369752    -0.19200
C763        C  0.53349082  0.86598472  0.12366326    -0.07700
C764        C  0.49983313  0.88609177  0.12441753    -0.03800
C765        C  0.46604175  0.86638252  0.12517796    -0.09100
C766        C  0.46595503  0.82746478  0.12523109    -0.16700
H767        H  0.43986131  0.62108499  0.12678210     0.11400
H768        H  0.43982703  0.68932121  0.12684448     0.10700
H769        H  0.55953138  0.68945825  0.12287846     0.10600
H770        H  0.56002902  0.62121141  0.12282220     0.11200
H771        H  0.55951099  0.81205636  0.12311797     0.11200
H772        H  0.55996337  0.88029674  0.12304338     0.11200
H773        H  0.43965974  0.88100593  0.12577952     0.11300
H774        H  0.43967122  0.81277183  0.12585972     0.10200
C775        C  0.50023814  0.38608907  0.12461302    -0.03700
C776        C  0.53394471  0.36606605  0.12526543    -0.09400
C777        C  0.53385814  0.32714427  0.12520905    -0.17100
C778        C  0.50014666  0.30773253  0.12448829     0.25100
C779        C  0.46647896  0.32737847  0.12387726    -0.18700
C780        C  0.46648345  0.36629501  0.12394813    -0.07700
C781        C  0.50009969  0.26767749  0.12435380    -0.14100
C782        C  0.50007129  0.23412113  0.12426184    -0.13800
C783        C  0.50008334  0.19406587  0.12424251     0.25000
C784        C  0.46639793  0.17459754  0.12365585    -0.19200
C785        C  0.46637157  0.13568021  0.12377764    -0.07700
C786        C  0.50011193  0.11571098  0.12447771    -0.03800
C787        C  0.53383906  0.13555894  0.12500823    -0.09100
C788        C  0.53378358  0.17447707  0.12489907    -0.16700
H789        H  0.56039097  0.38044548  0.12581551     0.11400
H790        H  0.56008190  0.31219834  0.12570561     0.10700
H791        H  0.44022051  0.31261970  0.12332585     0.10600
H792        H  0.44006438  0.38085016  0.12343906     0.11200
H793        H  0.44014854  0.18949485  0.12313235     0.11200
H794        H  0.43993998  0.12126146  0.12331919     0.11200
H795        H  0.56027882  0.12104541  0.12553792     0.11300
H796        H  0.56002193  0.18928352  0.12535329     0.10200
C797        C  0.00043852  0.49865277  0.31750144    -0.03700
C798        C  0.99586895  0.53213877  0.30767598    -0.09400
C799        C  0.99584737  0.53221060  0.28821816    -0.17100
C800        C  0.00049895  0.49889432  0.27831031     0.25100
C801        C  0.00509489  0.46543028  0.28794633    -0.18700
C802        C  0.00500675  0.46526241  0.30742005    -0.07700
C803        C  0.00055527  0.49912010  0.25827015    -0.14100
C804        C  0.00055855  0.49956382  0.24148488    -0.13800
C805        C  0.00051601  0.50009202  0.22144540     0.25000
C806        C  0.96679622  0.50149853  0.21171969    -0.19200
C807        C  0.96669766  0.50163518  0.19225198    -0.07700
C808        C  0.00039905  0.50038121  0.18224039    -0.03800
C809        C  0.03416711  0.49920075  0.19215614    -0.09100
C810        C  0.03418432  0.49903778  0.21162563    -0.16700
H811        H  0.99218352  0.55829360  0.31501380     0.11400
H812        H  0.99222190  0.55826604  0.28090271     0.10700
H813        H  0.00875202  0.43947520  0.28041207     0.10600
H814        H  0.00867787  0.43904553  0.31456670     0.11200
H815        H  0.94056808  0.50237996  0.21918146     0.11200
H816        H  0.94023294  0.50263918  0.18505561     0.11200
H817        H  0.06058162  0.49824885  0.18488330     0.11300
H818        H  0.06045434  0.49798304  0.21901563     0.10200
C819        C  0.99950492  0.49890212  0.06733389    -0.03700
C820        C  0.96570164  0.49947380  0.05742631    -0.09400
C821        C  0.96566058  0.49974031  0.03795258    -0.17100
C822        C  0.99934326  0.49942451  0.02812815     0.25100
C823        C  0.03308232  0.49873778  0.03785159    -0.18700
C824        C  0.03320374  0.49848309  0.05731471    -0.07700
C825        C  0.99935317  0.50002800  0.00808673    -0.14100
C826        C  0.99956474  0.50071041  0.99130233    -0.13800
C827        C  0.99973526  0.50158557  0.97126454     0.25000
C828        C  0.03342781  0.49959088  0.96148767    -0.19200
C829        C  0.03354809  0.50020446  0.94201626    -0.07700
C830        C  0.99989099  0.50274431  0.93206729    -0.03800
C831        C  0.96619267  0.50490820  0.94203911    -0.09100
C832        C  0.96615575  0.50434884  0.96149816    -0.16700
H833        H  0.93928372  0.49981871  0.06470740     0.11400
H834        H  0.93937101  0.50027907  0.03056567     0.10700
H835        H  0.05931849  0.49848745  0.03038790     0.10600
H836        H  0.05969263  0.49803098  0.06450252     0.11200
H837        H  0.05959505  0.49745850  0.96891025     0.11200
H838        H  0.05995401  0.49845616  0.93476801     0.11200
H839        H  0.93981768  0.50694840  0.93481576     0.11300
H840        H  0.93991760  0.50596266  0.96892369     0.10200
C841        C  0.00074682  0.99880853  0.18223178    -0.03700
C842        C  0.96712611  0.99714322  0.19227823    -0.09400
C843        C  0.96737021  0.99649217  0.21173575    -0.17100
C844        C  0.00115371  0.99752308  0.22141247     0.25100
C845        C  0.03474019  0.99922869  0.21156073    -0.18700
C846        C  0.03457862  0.99984888  0.19209757    -0.07700
C847        C  0.00131584  0.99700745  0.24144074    -0.14100
C848        C  0.00128259  0.99688827  0.25822155    -0.13800
C849        C  0.00112025  0.99725620  0.27825169     0.25000
C850        C  0.99602674  0.96416226  0.28811448    -0.19200
C851        C  0.99584900  0.96457869  0.30758174    -0.07700
C852        C  0.00063509  0.99819313  0.31742667    -0.03800
C853        C  0.00566906  0.03131392  0.30737605    -0.09100
C854        C  0.00596791  0.03079821  0.28791958    -0.16700
H855        H  0.94061835  0.99626377  0.18511689     0.11400
H856        H  0.94120740  0.99519065  0.21922949     0.10700
H857        H  0.06105307  0.00008095  0.21891998     0.10600
H858        H  0.06093032  0.00114513  0.18479171     0.11200
H859        H  0.99218626  0.93804789  0.28076288     0.11200
H860        H  0.99180149  0.93863349  0.31490889     0.11200
H861        H  0.00953109  0.05761549  0.31453654     0.11300
H862        H  0.00995696  0.05657143  0.28041765     0.10200
C863        C  0.99876816  0.00336897  0.93207198    -0.03700
C864        C  0.96505772  0.00565502  0.94203047    -0.09400
C865        C  0.96502238  0.00548235  0.96149936    -0.17100
C866        C  0.99861479  0.00296769  0.97128092     0.25100
C867        C  0.03229697  0.00079132  0.96150958    -0.18700
C868        C  0.03241534  0.00102333  0.94203903    -0.07700
C869        C  0.99850832  0.00238809  0.99132673    -0.14100
C870        C  0.99848785  0.00172353  0.00811433    -0.13800
C871        C  0.99864681  0.00085562  0.02815694     0.25000
C872        C  0.03223308  0.99650201  0.03778126    -0.19200
C873        C  0.03249637  0.99588850  0.05724562    -0.07700
C874        C  0.99908842  0.99954046  0.06735816    -0.03800
C875        C  0.96542911  0.00371022  0.05754988    -0.09100
C876        C  0.96525507  0.00441748  0.03808169    -0.16700
H877        H  0.93868790  0.00752499  0.93479067     0.11400
H878        H  0.93878412  0.00719711  0.96891922     0.10700
H879        H  0.05846889  0.99880862  0.96893857     0.10600
H880        H  0.05882926  0.99915584  0.93480523     0.11200
H881        H  0.05824124  0.99365748  0.03024106     0.11200
H882        H  0.05885294  0.99253528  0.06436265     0.11200
H883        H  0.93924665  0.00665377  0.06490895     0.11300
H884        H  0.93908925  0.00780661  0.03077593     0.10200
C885        C  0.00040837  0.88452850  0.12474293    -0.03700
C886        C  0.03423450  0.86476908  0.12580220    -0.09400
C887        C  0.03446140  0.82585809  0.12578611    -0.17100
C888        C  0.00094714  0.80619280  0.12468875     0.25100
C889        C  0.96716307  0.82556795  0.12365671    -0.18700
C890        C  0.96685166  0.86448510  0.12370006    -0.07700
C891        C  0.00120076  0.76615183  0.12460203    -0.14100
C892        C  0.00121312  0.73260401  0.12452977    -0.13800
C893        C  0.00097967  0.69256442  0.12448698     0.25000
C894        C  0.96713935  0.67333936  0.12419189    -0.19200
C895        C  0.96683659  0.63442561  0.12423675    -0.07700
C896        C  0.00045518  0.61423166  0.12456982    -0.03800
C897        C  0.03434306  0.63384142  0.12482771    -0.09100
C898        C  0.03456398  0.67275122  0.12479184    -0.16700
H899        H  0.06053893  0.87934856  0.12666397     0.11400
H900        H  0.06076867  0.81112225  0.12661221     0.10700
H901        H  0.94105815  0.81059445  0.12280460     0.10600
H902        H  0.94036194  0.87884477  0.12286430     0.11200
H903        H  0.94098076  0.68842785  0.12394756     0.11200
H904        H  0.94029618  0.62018717  0.12401501     0.11200
H905        H  0.06070249  0.61914817  0.12508513     0.11300
H906        H  0.06091865  0.68737080  0.12502118     0.10200
C907        C  0.00015372  0.11414517  0.12494888    -0.03700
C908        C  0.03393184  0.13379308  0.12374355    -0.09400
C909        C  0.03410459  0.17271150  0.12371830    -0.17100
C910        C  0.00058230  0.19252211  0.12492168     0.25100
C911        C  0.96684556  0.17325503  0.12614425    -0.18700
C912        C  0.96658914  0.13432557  0.12614558    -0.07700
C913        C  0.00078869  0.23259293  0.12489542    -0.14100
C914        C  0.00081348  0.26615914  0.12487711    -0.13800
C915        C  0.00063170  0.30623143  0.12486860     0.25000
C916        C  0.96683472  0.32569379  0.12544035    -0.19200
C917        C  0.96658812  0.36462285  0.12544104    -0.07700
C918        C  0.00022005  0.38461330  0.12488175    -0.03800
C919        C  0.03406149  0.36477021  0.12431035    -0.09100
C920        C  0.03422700  0.32584828  0.12429826    -0.16700
H921        H  0.06024541  0.11911882  0.12277995     0.11400
H922        H  0.06038202  0.18734166  0.12275704     0.10700
H923        H  0.94073009  0.18832204  0.12709041     0.10600
H924        H  0.94013209  0.12006312  0.12710892     0.11200
H925        H  0.94066221  0.31077799  0.12588704     0.11200
H926        H  0.94007952  0.37903367  0.12589367     0.11200
H927        H  0.06043319  0.37929236  0.12385562     0.11300
H928        H  0.06055358  0.31106551  0.12384685     0.10200
loop_ 
_geom_bond_atom_site_label_1 
_geom_bond_atom_site_label_2 
_geom_bond_distance 
_geom_bond_site_symmetry_2 
_ccdc_geom_bond_type 
O1           Cu9   2.009       .  S
O1           C11   1.278       .  A
O2           Cu9   2.008       .  S
O2           C12   1.278   1_655  A
O3           Cu9   2.011   1_545  S
O3           C13   1.279       .  A
O4           Cu9   2.011       .  S
O4           C14   1.279   1_655  A
O5          Cu10   2.005       .  S
O5           C14   1.278       .  A
O6          Cu10   2.007   1_545  S
O6           C13   1.278   1_455  A
O7          Cu10   2.010       .  S
O7           C12   1.278       .  A
O8          Cu10   2.010       .  S
O8           C11   1.279   1_455  A
Cu9         Cu10   2.370   1_655  S
C11         C874   1.482       .  S
C12         C841   1.481       .  S
C13         C907   1.481   1_655  S
C14         C885   1.481       .  S
O15         Cu23   2.006       .  S
O15          C25   1.278       .  A
O16         Cu23   2.006       .  S
O16          C26   1.278       .  A
O17         Cu23   2.011       .  S
O17          C27   1.279       .  A
O18         Cu23   2.010       .  S
O18          C28   1.279   1_455  A
O19         Cu24   2.009       .  S
O19          C28   1.278       .  A
O20         Cu24   2.009       .  S
O20          C27   1.278   1_655  A
O21         Cu24   2.010       .  S
O21          C26   1.279   1_655  A
O22         Cu24   2.012       .  S
O22          C25   1.279   1_655  A
Cu23        Cu24   2.370   1_455  S
C25         C918   1.482       .  S
C26         C896   1.481       .  S
C27         C808   1.482       .  S
C28         C819   1.482       .  S
O29         Cu37   2.009       .  S
O29          C39   1.278       .  A
O30         Cu37   2.009       .  S
O30          C40   1.278       .  A
O31         Cu37   2.009   1_565  S
O31          C41   1.278       .  A
O32         Cu37   2.009       .  S
O32          C42   1.278       .  A
O33         Cu38   2.008       .  S
O33          C42   1.278       .  A
O34         Cu38   2.008   1_565  S
O34          C41   1.278       .  A
O35         Cu38   2.009       .  S
O35          C40   1.278       .  A
O36         Cu38   2.009       .  S
O36          C39   1.278       .  A
Cu37        Cu38   2.370       .  S
C39         C742   1.481       .  S
C40         C720   1.481       .  S
C41         C764   1.481       .  S
C42         C786   1.481       .  S
O43         Cu51   2.008       .  S
O43          C53   1.278       .  A
O44         Cu51   2.008       .  S
O44          C54   1.278       .  A
O45         Cu51   2.009       .  S
O45          C55   1.278       .  A
O46         Cu51   2.007       .  S
O46          C56   1.278       .  A
O47         Cu52   2.008       .  S
O47          C56   1.278       .  A
O48         Cu52   2.009       .  S
O48          C55   1.278       .  A
O49         Cu52   2.010       .  S
O49          C54   1.278       .  A
O50         Cu52   2.009       .  S
O50          C53   1.278       .  A
Cu51        Cu52   2.370       .  S
C53         C775   1.481       .  S
C54         C753   1.481       .  S
C55         C687   1.481       .  S
C56         C665   1.480       .  S
O57         Cu65   2.008       .  S
O57          C67   1.278   1_545  A
O58         Cu65   2.009       .  S
O58          C68   1.278       .  A
O59         Cu65   2.007       .  S
O59          C69   1.278       .  A
O60         Cu65   2.007   1_565  S
O60          C70   1.278       .  A
O61         Cu66   2.009   1_565  S
O61          C70   1.278   1_455  A
O62         Cu66   2.011       .  S
O62          C69   1.279   1_455  A
O63         Cu66   2.010       .  S
O63          C68   1.278   1_455  A
O64         Cu66   2.009       .  S
O64          C67   1.278   1_445  A
Cu65        Cu66   2.370   1_655  S
C67         C610   1.481       .  S
C68         C863   1.482       .  S
C69         C643   1.481       .  S
C70         C621   1.481       .  S
O71         Cu79   2.007       .  S
O71          C81   1.278       .  A
O72         Cu79   2.006       .  S
O72          C82   1.278       .  A
O73         Cu79   2.009       .  S
O73          C83   1.278       .  A
O74         Cu79   2.009       .  S
O74          C84   1.278       .  A
O75         Cu80   2.010       .  S
O75          C84   1.278   1_455  A
O76         Cu80   2.009       .  S
O76          C83   1.278   1_455  A
O77         Cu80   2.012       .  S
O77          C82   1.279   1_455  A
O78         Cu80   2.010       .  S
O78          C81   1.279   1_455  A
Cu79        Cu80   2.370   1_655  S
C81         C654   1.481       .  S
C82         C632   1.481       .  S
C83         C577   1.481       .  S
C84         C830   1.482       .  S
O85         Cu93   2.009       .  S
O85          C95   1.278       .  A
O86         Cu93   2.009   1_565  S
O86          C96   1.278       .  A
O87         Cu93   2.012   1_565  S
O87          C97   1.279       .  A
O88         Cu93   2.012       .  S
O88          C98   1.279       .  A
O89         Cu94   2.006       .  S
O89          C98   1.278       .  A
O90         Cu94   2.005   1_565  S
O90          C97   1.278       .  A
O91         Cu94   2.009   1_565  S
O91          C96   1.278       .  A
O92         Cu94   2.008       .  S
O92          C95   1.278       .  A
Cu93        Cu94   2.370       .  S
C95         C731   1.481       .  S
C96         C511   1.481       .  S
C97         C533   1.481       .  S
C98         C555   1.481       .  S
O99        Cu107   2.012       .  S
O99         C109   1.279       .  A
O100       Cu107   2.011       .  S
O100        C110   1.279       .  A
O101       Cu107   2.010       .  S
O101        C111   1.278       .  A
O102       Cu107   2.010       .  S
O102        C112   1.278       .  A
O103       Cu108   2.009       .  S
O103        C112   1.278       .  A
O104       Cu108   2.009       .  S
O104        C111   1.278       .  A
O105       Cu108   2.005       .  S
O105        C110   1.278       .  A
O106       Cu108   2.006       .  S
O106        C109   1.278       .  A
Cu107      Cu108   2.370       .  S
C109        C544   1.481       .  S
C110        C566   1.481       .  S
C111        C698   1.482       .  S
C112        C489   1.481       .  S
O113       Cu121   2.008   1_455  S
O113        C123   1.278   1_545  A
O114       Cu121   2.009       .  S
O114        C124   1.278       .  A
O115       Cu121   2.006   1_455  S
O115        C125   1.278   1_545  A
O116       Cu121   2.006       .  S
O116        C126   1.278   1_545  A
O117       Cu122   2.009   1_655  S
O117        C126   1.278       .  A
O118       Cu122   2.009       .  S
O118        C125   1.278       .  A
O119       Cu122   2.006       .  S
O119        C124   1.278   1_465  A
O120       Cu122   2.007       .  S
O120        C123   1.278       .  A
Cu121      Cu122   2.371   1_645  S
C123        C852   1.480       .  S
C124        C434   1.480       .  S
C125        C478   1.480       .  S
C126        C445   1.480   1_565  S
O127       Cu135   2.007       .  S
O127        C137   1.278       .  A
O128       Cu135   2.002       .  S
O128        C138   1.277       .  A
O129       Cu135   2.008       .  S
O129        C139   1.278       .  A
O130       Cu135   2.009   1_655  S
O130        C140   1.278       .  A
O131       Cu136   2.007   1_655  S
O131        C140   1.278       .  A
O132       Cu136   2.007       .  S
O132        C139   1.278       .  A
O133       Cu136   2.011       .  S
O133        C138   1.279       .  A
O134       Cu136   2.010       .  S
O134        C137   1.278       .  A
Cu135      Cu136   2.371       .  S
C137        C797   1.481       .  S
C138        C357   1.479       .  S
C139        C401   1.480       .  S
C140        C390   1.480       .  S
O141       Cu149   2.008       .  S
O141        C151   1.278       .  A
O142       Cu149   2.008       .  S
O142        C152   1.278       .  A
O143       Cu149   2.010       .  S
O143        C153   1.279       .  A
O144       Cu149   2.009       .  S
O144        C154   1.278       .  A
O145       Cu150   2.006       .  S
O145        C154   1.278   1_565  A
O146       Cu150   2.006       .  S
O146        C153   1.278   1_565  A
O147       Cu150   2.007       .  S
O147        C152   1.278   1_565  A
O148       Cu150   2.006       .  S
O148        C151   1.278   1_565  A
Cu149      Cu150   2.371   1_545  S
C151        C467   1.480       .  S
C152        C456   1.480       .  S
C153        C709   1.481   1_545  S
C154        C346   1.480       .  S
O155       Cu163   2.001       .  S
O155        C165   1.277       .  A
O156       Cu163   2.005       .  S
O156        C166   1.278       .  A
O157       Cu163   2.010       .  S
O157        C167   1.279       .  A
O158       Cu163   2.008       .  S
O158        C168   1.278       .  A
O159       Cu164   2.008       .  S
O159        C168   1.278       .  A
O160       Cu164   2.005       .  S
O160        C167   1.278       .  A
O161       Cu164   2.009       .  S
O161        C166   1.278       .  A
O162       Cu164   2.014       .  S
O162        C165   1.279       .  A
Cu163      Cu164   2.371       .  S
C165        C313   1.480       .  S
C166        C676   1.480       .  S
C167        C412   1.479       .  S
C168        C379   1.480       .  S
O169       Cu177   2.006       .  S
O169        C179   1.278       .  A
O170       Cu177   2.014       .  S
O170        C180   1.279       .  A
O171       Cu177   2.008   1_455  S
O171        C181   1.278       .  A
O172       Cu177   2.010       .  S
O172        C182   1.278       .  A
O173       Cu178   2.008       .  S
O173        C182   1.278   1_545  A
O174       Cu178   2.010   1_455  S
O174        C181   1.278   1_545  A
O175       Cu178   2.001       .  S
O175        C180   1.277   1_545  A
O176       Cu178   2.008       .  S
O176        C179   1.278   1_545  A
Cu177      Cu178   2.372   1_565  S
C179        C599   1.479       .  S
C180        C423   1.480       .  S
C181        C291   1.477       .  S
C182        C269   1.480       .  S
O183       Cu191   2.007   1_455  S
O183        C193   1.278       .  A
O184       Cu191   2.006       .  S
O184        C194   1.278       .  A
O185       Cu191   2.012       .  S
O185        C195   1.279       .  A
O186       Cu191   2.009       .  S
O186        C196   1.278       .  A
O187       Cu192   2.004       .  S
O187        C196   1.278       .  A
O188       Cu192   2.003       .  S
O188        C195   1.277       .  A
O189       Cu192   2.008       .  S
O189        C194   1.278       .  A
O190       Cu192   2.010   1_455  S
O190        C193   1.279       .  A
Cu191      Cu192   2.371       .  S
C193        C258   1.481       .  S
C194        C225   1.478       .  S
C195        C588   1.480       .  S
C196        C368   1.480       .  S
O197       Cu205   2.009       .  S
O197        C207   1.278       .  A
O198       Cu205   2.005       .  S
O198        C208   1.278       .  A
O199       Cu205   2.007       .  S
O199        C209   1.278       .  A
O200       Cu205   2.013       .  S
O200        C210   1.279       .  A
O201       Cu206   2.001       .  S
O201        C210   1.277   1_545  A
O202       Cu206   2.009       .  S
O202        C209   1.278   1_545  A
O203       Cu206   2.012       .  S
O203        C208   1.279   1_545  A
O204       Cu206   2.009       .  S
O204        C207   1.278   1_545  A
Cu205      Cu206   2.372   1_565  S
C207        C302   1.478       .  S
C208        C280   1.479       .  S
C209        C522   1.481       .  S
C210        C335   1.478   1_565  S
O211       Cu219   2.010       .  S
O211        C221   1.278       .  A
O212       Cu219   2.012       .  S
O212        C222   1.279       .  A
O213       Cu219   2.006       .  S
O213        C223   1.278       .  A
O214       Cu219   2.008       .  S
O214        C224   1.278       .  A
O215       Cu220   2.008       .  S
O215        C224   1.278       .  A
O216       Cu220   2.009       .  S
O216        C223   1.278       .  A
O217       Cu220   2.005       .  S
O217        C222   1.278       .  A
O218       Cu220   2.006       .  S
O218        C221   1.278       .  A
Cu219      Cu220   2.371       .  S
C221        C324   1.481       .  S
C222        C500   1.481       .  S
C223        C236   1.480       .  S
C224        C247   1.480       .  S
C225        C226   1.407       .  A
C225        C230   1.406       .  A
C226        C227   1.398       .  A
C226        H239   1.083       .  S
C227        C228   1.399       .  A
C227        H240   1.084       .  S
C228        C229   1.399       .  A
C228        C231   1.438       .  S
C229        C230   1.398       .  A
C229        H241   1.084       .  S
C230        H242   1.083       .  S
C231        C232   1.205       .  T
C232        C233   1.438       .  S
C233        C234   1.399       .  A
C233        C238   1.399       .  A
C234        C235   1.398       .  A
C234        H243   1.084       .  S
C235        C236   1.407       .  A
C235        H244   1.083       .  S
C236        C237   1.408       .  A
C237        C238   1.398       .  A
C237        H245   1.083       .  S
C238        H246   1.084       .  S
C247        C248   1.407       .  A
C247        C252   1.407       .  A
C248        C249   1.398       .  A
C248        H261   1.083       .  S
C249        C250   1.400       .  A
C249        H262   1.084       .  S
C250        C251   1.399       .  A
C250        C253   1.439       .  S
C251        C252   1.398       .  A
C251        H263   1.084       .  S
C252        H264   1.083       .  S
C253        C254   1.206       .  T
C254        C255   1.439       .  S
C255        C256   1.400       .  A
C255        C260   1.399       .  A
C256        C257   1.399       .  A
C256        H265   1.084       .  S
C257        C258   1.407       .  A
C257        H266   1.083       .  S
C258        C259   1.407       .  A
C259        C260   1.398       .  A
C259        H267   1.083       .  S
C260        H268   1.084       .  S
C269        C270   1.407   1_565  A
C269        C274   1.407       .  A
C270        C271   1.398       .  A
C270        H283   1.083       .  S
C271        C272   1.399   1_545  A
C271        H284   1.084       .  S
C272        C273   1.400       .  A
C272        C275   1.439       .  S
C273        C274   1.399       .  A
C273        H285   1.083       .  S
C274        H286   1.083       .  S
C275        C276   1.206       .  T
C276        C277   1.439       .  S
C277        C278   1.399       .  A
C277        C282   1.400   1_565  A
C278        C279   1.398       .  A
C278        H287   1.084       .  S
C279        C280   1.407       .  A
C279        H288   1.083       .  S
C280        C281   1.407   1_565  A
C281        C282   1.399       .  A
C281        H289   1.083       .  S
C282        H290   1.083       .  S
C291        C292   1.406   1_565  A
C291        C296   1.406       .  A
C292        C293   1.399       .  A
C292        H305   1.083       .  S
C293        C294   1.400       .  A
C293        H306   1.083       .  S
C294        C295   1.400   1_545  A
C294        C297   1.440       .  S
C295        C296   1.399       .  A
C295        H307   1.084       .  S
C296        H308   1.083       .  S
C297        C298   1.206       .  T
C298        C299   1.440       .  S
C299        C300   1.400   1_545  A
C299        C304   1.400       .  A
C300        C301   1.398       .  A
C300        H309   1.084       .  S
C301        C302   1.406       .  A
C301        H310   1.083       .  S
C302        C303   1.406   1_565  A
C303        C304   1.399       .  A
C303        H311   1.083       .  S
C304        H312   1.084       .  S
C313        C314   1.407       .  A
C313        C318   1.408       .  A
C314        C315   1.399       .  A
C314        H327   1.083       .  S
C315        C316   1.400       .  A
C315        H328   1.083       .  S
C316        C317   1.399       .  A
C316        C319   1.438       .  S
C317        C318   1.397       .  A
C317        H329   1.084       .  S
C318        H330   1.083       .  S
C319        C320   1.205       .  T
C320        C321   1.438       .  S
C321        C322   1.400       .  A
C321        C326   1.399       .  A
C322        C323   1.399       .  A
C322        H331   1.083       .  S
C323        C324   1.407       .  A
C323        H332   1.083       .  S
C324        C325   1.407       .  A
C325        C326   1.397       .  A
C325        H333   1.083       .  S
C326        H334   1.084       .  S
C335        C336   1.407       .  A
C335        C340   1.406   1_545  A
C336        C337   1.397       .  A
C336        H349   1.083       .  S
C337        C338   1.399       .  A
C337        H350   1.084       .  S
C338        C339   1.400   1_545  A
C338        C341   1.438       .  S
C339        C340   1.398       .  A
C339        H351   1.083       .  S
C340        H352   1.083       .  S
C341        C342   1.205       .  T
C342        C343   1.438       .  S
C343        C344   1.399   1_545  A
C343        C348   1.399       .  A
C344        C345   1.397       .  A
C344        H353   1.084       .  S
C345        C346   1.407   1_565  A
C345        H354   1.083       .  S
C346        C347   1.407       .  A
C347        C348   1.398       .  A
C347        H355   1.083       .  S
C348        H356   1.083       .  S
C357        C358   1.407   1_455  A
C357        C362   1.407       .  A
C358        C359   1.398       .  A
C358        H371   1.083       .  S
C359        C360   1.399   1_655  A
C359        H372   1.084       .  S
C360        C361   1.399       .  A
C360        C363   1.437       .  S
C361        C362   1.397       .  A
C361        H373   1.084       .  S
C362        H374   1.083       .  S
C363        C364   1.205   1_455  T
C364        C365   1.437       .  S
C365        C366   1.400       .  A
C365        C370   1.398   1_655  A
C366        C367   1.399       .  A
C366        H375   1.083       .  S
C367        C368   1.407       .  A
C367        H376   1.083       .  S
C368        C369   1.407       .  A
C369        C370   1.397   1_655  A
C369        H377   1.083   1_655  S
C370        H378   1.084       .  S
C379        C380   1.407       .  A
C379        C384   1.407       .  A
C380        C381   1.398       .  A
C380        H393   1.083       .  S
C381        C382   1.399       .  A
C381        H394   1.084       .  S
C382        C383   1.399       .  A
C382        C385   1.439       .  S
C383        C384   1.398       .  A
C383        H395   1.084       .  S
C384        H396   1.083       .  S
C385        C386   1.205       .  T
C386        C387   1.439       .  S
C387        C388   1.399       .  A
C387        C392   1.400       .  A
C388        C389   1.398       .  A
C388        H397   1.084       .  S
C389        C390   1.407       .  A
C389        H398   1.083       .  S
C390        C391   1.407       .  A
C391        C392   1.398       .  A
C391        H399   1.083       .  S
C392        H400   1.084       .  S
C401        C402   1.407       .  A
C401        C406   1.407       .  A
C402        C403   1.398       .  A
C402        H415   1.083       .  S
C403        C404   1.399       .  A
C403        H416   1.084       .  S
C404        C405   1.399       .  A
C404        C407   1.438       .  S
C405        C406   1.398       .  A
C405        H417   1.084       .  S
C406        H418   1.083       .  S
C407        C408   1.205       .  T
C408        C409   1.438       .  S
C409        C410   1.399       .  A
C409        C414   1.400       .  A
C410        C411   1.398       .  A
C410        H419   1.084       .  S
C411        C412   1.407       .  A
C411        H420   1.083       .  S
C412        C413   1.407       .  A
C413        C414   1.398       .  A
C413        H421   1.083       .  S
C414        H422   1.084       .  S
C423        C424   1.407       .  A
C423        C428   1.408   1_565  A
C424        C425   1.399       .  A
C424        H437   1.083   1_655  S
C425        C426   1.400   1_565  A
C425        H438   1.083   1_655  S
C426        C427   1.399       .  A
C426        C429   1.438       .  S
C427        C428   1.397       .  A
C427        H439   1.084       .  S
C428        H440   1.083       .  S
C429        C430   1.205       .  T
C430        C431   1.438       .  S
C431        C432   1.400       .  A
C431        C436   1.399   1_645  A
C432        C433   1.399       .  A
C432        H441   1.083       .  S
C433        C434   1.407       .  A
C433        H442   1.083       .  S
C434        C435   1.407   1_645  A
C435        C436   1.397       .  A
C435        H443   1.083       .  S
C436        H444   1.084       .  S
C445        C446   1.407   1_545  A
C445        C450   1.407       .  A
C446        C447   1.398       .  A
C446        H459   1.083       .  S
C447        C448   1.399   1_565  A
C447        H460   1.084       .  S
C448        C449   1.399       .  A
C448        C451   1.438       .  S
C449        C450   1.398       .  A
C449        H461   1.084       .  S
C450        H462   1.083       .  S
C451        C452   1.205       .  T
C452        C453   1.438       .  S
C453        C454   1.399       .  A
C453        C458   1.399   1_545  A
C454        C455   1.398       .  A
C454        H463   1.084       .  S
C455        C456   1.407       .  A
C455        H464   1.083       .  S
C456        C457   1.407   1_545  A
C457        C458   1.398       .  A
C457        H465   1.083       .  S
C458        H466   1.084       .  S
C467        C468   1.407   1_545  A
C467        C472   1.407       .  A
C468        C469   1.398       .  A
C468        H481   1.083       .  S
C469        C470   1.399   1_565  A
C469        H482   1.084       .  S
C470        C471   1.399       .  A
C470        C473   1.438       .  S
C471        C472   1.398       .  A
C471        H483   1.084       .  S
C472        H484   1.083       .  S
C473        C474   1.205       .  T
C474        C475   1.438       .  S
C475        C476   1.399       .  A
C475        C480   1.399   1_545  A
C476        C477   1.398       .  A
C476        H485   1.084       .  S
C477        C478   1.407   1_545  A
C477        H486   1.083       .  S
C478        C479   1.407       .  A
C479        C480   1.398       .  A
C479        H487   1.083       .  S
C480        H488   1.084       .  S
C489        C490   1.408       .  A
C489        C494   1.407       .  A
C490        C491   1.398       .  A
C490        H503   1.083       .  S
C491        C492   1.399       .  A
C491        H504   1.084       .  S
C492        C493   1.399       .  A
C492        C495   1.439       .  S
C493        C494   1.399       .  A
C493        H505   1.084       .  S
C494        H506   1.083       .  S
C495        C496   1.206       .  T
C496        C497   1.439       .  S
C497        C498   1.399       .  A
C497        C502   1.400       .  A
C498        C499   1.398       .  A
C498        H507   1.083       .  S
C499        C500   1.408       .  A
C499        H508   1.083       .  S
C500        C501   1.407       .  A
C501        C502   1.398       .  A
C501        H509   1.083       .  S
C502        H510   1.083       .  S
C511        C512   1.407       .  A
C511        C516   1.408       .  A
C512        C513   1.398       .  A
C512        H525   1.083       .  S
C513        C514   1.399       .  A
C513        H526   1.084       .  S
C514        C515   1.399       .  A
C514        C517   1.439       .  S
C515        C516   1.398       .  A
C515        H527   1.084       .  S
C516        H528   1.083       .  S
C517        C518   1.206       .  T
C518        C519   1.439       .  S
C519        C520   1.399       .  A
C519        C524   1.399   1_565  A
C520        C521   1.398       .  A
C520        H529   1.083       .  S
C521        C522   1.407       .  A
C521        H530   1.083       .  S
C522        C523   1.407   1_565  A
C523        C524   1.398       .  A
C523        H531   1.083       .  S
C524        H532   1.084       .  S
C533        C534   1.408       .  A
C533        C538   1.407       .  A
C534        C535   1.398       .  A
C534        H547   1.083       .  S
C535        C536   1.399       .  A
C535        H548   1.084       .  S
C536        C537   1.400       .  A
C536        C539   1.439       .  S
C537        C538   1.398       .  A
C537        H549   1.084       .  S
C538        H550   1.083       .  S
C539        C540   1.206       .  T
C540        C541   1.439       .  S
C541        C542   1.400       .  A
C541        C546   1.399       .  A
C542        C543   1.399       .  A
C542        H551   1.084       .  S
C543        C544   1.407       .  A
C543        H552   1.083       .  S
C544        C545   1.408       .  A
C545        C546   1.398       .  A
C545        H553   1.083       .  S
C546        H554   1.084       .  S
C555        C556   1.407       .  A
C555        C560   1.408       .  A
C556        C557   1.399       .  A
C556        H569   1.083       .  S
C557        C558   1.400       .  A
C557        H570   1.084       .  S
C558        C559   1.399       .  A
C558        C561   1.439       .  S
C559        C560   1.398       .  A
C559        H571   1.084       .  S
C560        H572   1.083       .  S
C561        C562   1.206       .  T
C562        C563   1.439       .  S
C563        C564   1.399       .  A
C563        C568   1.400       .  A
C564        C565   1.398       .  A
C564        H573   1.084       .  S
C565        C566   1.408       .  A
C565        H574   1.083       .  S
C566        C567   1.407       .  A
C567        C568   1.399       .  A
C567        H575   1.083       .  S
C568        H576   1.084       .  S
C577        C578   1.407       .  A
C577        C582   1.407   1_655  A
C578        C579   1.398       .  A
C578        H591   1.083       .  S
C579        C580   1.399       .  A
C579        H592   1.084       .  S
C580        C581   1.399   1_655  A
C580        C583   1.439       .  S
C581        C582   1.398       .  A
C581        H593   1.084       .  S
C582        H594   1.083       .  S
C583        C584   1.206       .  T
C584        C585   1.439       .  S
C585        C586   1.399   1_655  A
C585        C590   1.399       .  A
C586        C587   1.398       .  A
C586        H595   1.084       .  S
C587        C588   1.407   1_455  A
C587        H596   1.083       .  S
C588        C589   1.408       .  A
C589        C590   1.398       .  A
C589        H597   1.083       .  S
C590        H598   1.083       .  S
C599        C600   1.407   1_565  A
C599        C604   1.407   1_655  A
C600        C601   1.398       .  A
C600        H613   1.083       .  S
C601        C602   1.399   1_545  A
C601        H614   1.084       .  S
C602        C603   1.399   1_655  A
C602        C605   1.438       .  S
C603        C604   1.398       .  A
C603        H615   1.083       .  S
C604        H616   1.083       .  S
C605        C606   1.205       .  T
C606        C607   1.438       .  S
C607        C608   1.399       .  A
C607        C612   1.399   1_655  A
C608        C609   1.398       .  A
C608        H617   1.084       .  S
C609        C610   1.407       .  A
C609        H618   1.083   1_565  S
C610        C611   1.407   1_655  A
C611        C612   1.398       .  A
C611        H619   1.083       .  S
C612        H620   1.084       .  S
C621        C622   1.407   1_655  A
C621        C626   1.408       .  A
C622        C623   1.398       .  A
C622        H635   1.083       .  S
C623        C624   1.399   1_455  A
C623        H636   1.084       .  S
C624        C625   1.399       .  A
C624        C627   1.439       .  S
C625        C626   1.398       .  A
C625        H637   1.084       .  S
C626        H638   1.083       .  S
C627        C628   1.206       .  T
C628        C629   1.439       .  S
C629        C630   1.399       .  A
C629        C634   1.400   1_655  A
C630        C631   1.398       .  A
C630        H639   1.084       .  S
C631        C632   1.408       .  A
C631        H640   1.083       .  S
C632        C633   1.407   1_655  A
C633        C634   1.399       .  A
C633        H641   1.083       .  S
C634        H642   1.084       .  S
C643        C644   1.407   1_655  A
C643        C648   1.408       .  A
C644        C645   1.399       .  A
C644        H657   1.083       .  S
C645        C646   1.400   1_455  A
C645        H658   1.084       .  S
C646        C647   1.399       .  A
C646        C649   1.440       .  S
C647        C648   1.398       .  A
C647        H659   1.084       .  S
C648        H660   1.083       .  S
C649        C650   1.206       .  T
C650        C651   1.440       .  S
C651        C652   1.399       .  A
C651        C656   1.400   1_655  A
C652        C653   1.398       .  A
C652        H661   1.084       .  S
C653        C654   1.408       .  A
C653        H662   1.083       .  S
C654        C655   1.407   1_655  A
C655        C656   1.398       .  A
C655        H663   1.083       .  S
C656        H664   1.084       .  S
C665        C666   1.407       .  A
C665        C670   1.407       .  A
C666        C667   1.398       .  A
C666        H679   1.083       .  S
C667        C668   1.399       .  A
C667        H680   1.084       .  S
C668        C669   1.399       .  A
C668        C671   1.438       .  S
C669        C670   1.398       .  A
C669        H681   1.084       .  S
C670        H682   1.083       .  S
C671        C672   1.205       .  T
C672        C673   1.438       .  S
C673        C674   1.400       .  A
C673        C678   1.399       .  A
C674        C675   1.398       .  A
C674        H683   1.083       .  S
C675        C676   1.407       .  A
C675        H684   1.083       .  S
C676        C677   1.407       .  A
C677        C678   1.397       .  A
C677        H685   1.083       .  S
C678        H686   1.084       .  S
C687        C688   1.407       .  A
C687        C692   1.408       .  A
C688        C689   1.398       .  A
C688        H701   1.083       .  S
C689        C690   1.399       .  A
C689        H702   1.084       .  S
C690        C691   1.400       .  A
C690        C693   1.440       .  S
C691        C692   1.399       .  A
C691        H703   1.084       .  S
C692        H704   1.083       .  S
C693        C694   1.206   1_554  T
C694        C695   1.440       .  S
C695        C696   1.399       .  A
C695        C700   1.400       .  A
C696        C697   1.398       .  A
C696        H705   1.084       .  S
C697        C698   1.408       .  A
C697        H706   1.083       .  S
C698        C699   1.408       .  A
C699        C700   1.399       .  A
C699        H707   1.083       .  S
C700        H708   1.084       .  S
C709        C710   1.407   1_565  A
C709        C714   1.408       .  A
C710        C711   1.398       .  A
C710        H723   1.083       .  S
C711        C712   1.399   1_545  A
C711        H724   1.084       .  S
C712        C713   1.399       .  A
C712        C715   1.439       .  S
C713        C714   1.398       .  A
C713        H725   1.083       .  S
C714        H726   1.083       .  S
C715        C716   1.206       .  T
C716        C717   1.439       .  S
C717        C718   1.399   1_565  A
C717        C722   1.399       .  A
C718        C719   1.398       .  A
C718        H727   1.084       .  S
C719        C720   1.408       .  A
C719        H728   1.083       .  S
C720        C721   1.407   1_545  A
C721        C722   1.398       .  A
C721        H729   1.083       .  S
C722        H730   1.084       .  S
C731        C732   1.407       .  A
C731        C736   1.408       .  A
C732        C733   1.398       .  A
C732        H745   1.083   1_545  S
C733        C734   1.399       .  A
C733        H746   1.084   1_545  S
C734        C735   1.400       .  A
C734        C737   1.439       .  S
C735        C736   1.399       .  A
C735        H747   1.084       .  S
C736        H748   1.083       .  S
C737        C738   1.206   1_556  T
C738        C739   1.439       .  S
C739        C740   1.399   1_545  A
C739        C744   1.400       .  A
C740        C741   1.398       .  A
C740        H749   1.084       .  S
C741        C742   1.407   1_565  A
C741        H750   1.083       .  S
C742        C743   1.408       .  A
C743        C744   1.399       .  A
C743        H751   1.083       .  S
C744        H752   1.084       .  S
C753        C754   1.408       .  A
C753        C758   1.407       .  A
C754        C755   1.398       .  A
C754        H767   1.083       .  S
C755        C756   1.399       .  A
C755        H768   1.084       .  S
C756        C757   1.399       .  A
C756        C759   1.439       .  S
C757        C758   1.398       .  A
C757        H769   1.084       .  S
C758        H770   1.083       .  S
C759        C760   1.206       .  T
C760        C761   1.439       .  S
C761        C762   1.399       .  A
C761        C766   1.399       .  A
C762        C763   1.398       .  A
C762        H771   1.084       .  S
C763        C764   1.407       .  A
C763        H772   1.083       .  S
C764        C765   1.408       .  A
C765        C766   1.398       .  A
C765        H773   1.083       .  S
C766        H774   1.084       .  S
C775        C776   1.407       .  A
C775        C780   1.408       .  A
C776        C777   1.398       .  A
C776        H789   1.083       .  S
C777        C778   1.399       .  A
C777        H790   1.084       .  S
C778        C779   1.399       .  A
C778        C781   1.439       .  S
C779        C780   1.398       .  A
C779        H791   1.084       .  S
C780        H792   1.083       .  S
C781        C782   1.206       .  T
C782        C783   1.439       .  S
C783        C784   1.399       .  A
C783        C788   1.399       .  A
C784        C785   1.398       .  A
C784        H793   1.084       .  S
C785        C786   1.408       .  A
C785        H794   1.083       .  S
C786        C787   1.407       .  A
C787        C788   1.398       .  A
C787        H795   1.083       .  S
C788        H796   1.084       .  S
C797        C798   1.407   1_455  A
C797        C802   1.407       .  A
C798        C799   1.398       .  A
C798        H811   1.083       .  S
C799        C800   1.399   1_655  A
C799        H812   1.084       .  S
C800        C801   1.400       .  A
C800        C803   1.440       .  S
C801        C802   1.399       .  A
C801        H813   1.083       .  S
C802        H814   1.083       .  S
C803        C804   1.206       .  T
C804        C805   1.440       .  S
C805        C806   1.399   1_455  A
C805        C810   1.399       .  A
C806        C807   1.399       .  A
C806        H815   1.084       .  S
C807        C808   1.408   1_655  A
C807        H816   1.083       .  S
C808        C809   1.407       .  A
C809        C810   1.399       .  A
C809        H817   1.083       .  S
C810        H818   1.084       .  S
C819        C820   1.408       .  A
C819        C824   1.407   1_655  A
C820        C821   1.399       .  A
C820        H833   1.083       .  S
C821        C822   1.400       .  A
C821        H834   1.084       .  S
C822        C823   1.399   1_655  A
C822        C825   1.440       .  S
C823        C824   1.398       .  A
C823        H835   1.084       .  S
C824        H836   1.083       .  S
C825        C826   1.206   1_554  T
C826        C827   1.440       .  S
C827        C828   1.400   1_655  A
C827        C832   1.399       .  A
C828        C829   1.399       .  A
C828        H837   1.084       .  S
C829        C830   1.408   1_455  A
C829        H838   1.083       .  S
C830        C831   1.407       .  A
C831        C832   1.398       .  A
C831        H839   1.083       .  S
C832        H840   1.084       .  S
C841        C842   1.407   1_455  A
C841        C846   1.407       .  A
C842        C843   1.398       .  A
C842        H855   1.083       .  S
C843        C844   1.399   1_655  A
C843        H856   1.084       .  S
C844        C845   1.399       .  A
C844        C847   1.439       .  S
C845        C846   1.398       .  A
C845        H857   1.084   1_565  S
C846        H858   1.083   1_565  S
C847        C848   1.206       .  T
C848        C849   1.439       .  S
C849        C850   1.399   1_455  A
C849        C854   1.399   1_565  A
C850        C851   1.398       .  A
C850        H859   1.083       .  S
C851        C852   1.407   1_655  A
C851        H860   1.083       .  S
C852        C853   1.407   1_565  A
C853        C854   1.398       .  A
C853        H861   1.083       .  S
C854        H862   1.084       .  S
C863        C864   1.407       .  A
C863        C868   1.408   1_655  A
C864        C865   1.399       .  A
C864        H877   1.083       .  S
C865        C866   1.399       .  A
C865        H878   1.084       .  S
C866        C867   1.400   1_655  A
C866        C869   1.440       .  S
C867        C868   1.399       .  A
C867        H879   1.084   1_545  S
C868        H880   1.083   1_545  S
C869        C870   1.206   1_556  T
C870        C871   1.440       .  S
C871        C872   1.400   1_645  A
C871        C876   1.400       .  A
C872        C873   1.399       .  A
C872        H881   1.084       .  S
C873        C874   1.407   1_455  A
C873        H882   1.083       .  S
C874        C875   1.408   1_565  A
C875        C876   1.399       .  A
C875        H883   1.083       .  S
C876        H884   1.084       .  S
C885        C886   1.408       .  A
C885        C890   1.407   1_455  A
C886        C887   1.398       .  A
C886        H899   1.083       .  S
C887        C888   1.399       .  A
C887        H900   1.084       .  S
C888        C889   1.399   1_455  A
C888        C891   1.439       .  S
C889        C890   1.398       .  A
C889        H901   1.084       .  S
C890        H902   1.083       .  S
C891        C892   1.205       .  T
C892        C893   1.439       .  S
C893        C894   1.399   1_455  A
C893        C898   1.399       .  A
C894        C895   1.398       .  A
C894        H903   1.084       .  S
C895        C896   1.407   1_655  A
C895        H904   1.083       .  S
C896        C897   1.408       .  A
C897        C898   1.398       .  A
C897        H905   1.083       .  S
C898        H906   1.084       .  S
C907        C908   1.408       .  A
C907        C912   1.407   1_455  A
C908        C909   1.398       .  A
C908        H921   1.083       .  S
C909        C910   1.399       .  A
C909        H922   1.084       .  S
C910        C911   1.400   1_455  A
C910        C913   1.440       .  S
C911        C912   1.399       .  A
C911        H923   1.084       .  S
C912        H924   1.083       .  S
C913        C914   1.206       .  T
C914        C915   1.440       .  S
C915        C916   1.400   1_455  A
C915        C920   1.399       .  A
C916        C917   1.399       .  A
C916        H925   1.084       .  S
C917        C918   1.407   1_655  A
C917        H926   1.083       .  S
C918        C919   1.408       .  A
C919        C920   1.398       .  A
C919        H927   1.083       .  S
C920        H928   1.084       .  S
