geometry optimzed in LAMMPS
_audit_creation_date              2020-11-30 
_audit_creation_method            'lammps2cif' 
_symmetry_space_group_name_H-M    'P1' 
_symmetry_Int_Tables_number       1 
_symmetry_cell_setting            triclinic 
loop_ 
_symmetry_equiv_pos_as_xyz 
  x,y,z 
_cell_length_a                    36.06434553047735 
_cell_length_b                    36.250551359767286 
_cell_length_c                    36.24981712552872 
_cell_angle_alpha                 90.12219220163189 
_cell_angle_beta                  90.11888874547499 
_cell_angle_gamma                 89.78045505932364 
loop_ 
_atom_site_label 
_atom_site_type_symbol 
_atom_site_fract_x 
_atom_site_fract_y 
_atom_site_fract_z 
_atom_site_charge 
C1          C  0.49298004  0.97223653  0.56152687     0.03650
C2          C  0.50260249  0.94608277  0.53477262    -0.12500
C3          C  0.48219340  0.94354552  0.50196465     0.01150
C4          C  0.45349271  0.96896615  0.49528619    -0.11020
C5          C  0.44201096  0.99425903  0.52269135     0.03640
C6          C  0.46152524  0.99447150  0.55639772    -0.10440
H7          H  0.52674203  0.92867238  0.53896887     0.09240
H8          H  0.44113403  0.96937882  0.46811002     0.06770
H9          H  0.45405410  0.01346939  0.57821119     0.06610
C10         C  0.94567148  0.57775756  0.40445012     0.03650
C11         C  0.97019660  0.57385615  0.37472086    -0.12500
C12         C  0.99547315  0.60197514  0.36593185     0.01150
C13         C  0.99658721  0.63374313  0.38837459    -0.11020
C14         C  0.97320370  0.63701008  0.41904745     0.03640
C15         C  0.94686926  0.60977993  0.42604554    -0.10440
H16         H  0.97055452  0.54815469  0.35943039     0.09240
H17         H  0.01696254  0.65501767  0.38336904     0.06770
H18         H  0.92883448  0.61255392  0.44978788     0.06610
C19         C  0.58039479  0.59466339  0.55851116     0.03650
C20         C  0.57245282  0.61932429  0.52974277    -0.12500
C21         C  0.59930897  0.62826459  0.50316883     0.01150
C22         C  0.63301061  0.60851036  0.50321605    -0.11020
C23         C  0.64056337  0.58200445  0.53049961     0.03640
C24         C  0.61538883  0.57771268  0.55965707    -0.10440
H25         H  0.54489725  0.63108527  0.52762806     0.09240
H26         H  0.65277449  0.61258578  0.48122936     0.06770
H27         H  0.62213004  0.55894821  0.58190167     0.06610
C28         C  0.35505746  0.31855182  0.22410463     0.03650
C29         C  0.33146678  0.34929560  0.21965750    -0.12500
C30         C  0.30086005  0.35460839  0.24301160     0.01150
C31         C  0.29437351  0.32970337  0.27177946    -0.11020
C32         C  0.31791059  0.29930459  0.27694441     0.03640
C33         C  0.34796731  0.29374650  0.25306365    -0.10440
H34         H  0.33702813  0.36939189  0.19832108     0.09240
H35         H  0.27115333  0.33407437  0.29024274     0.06770
H36         H  0.36574960  0.26992453  0.25709611     0.06610
C37         C  0.63418711  0.49555189  0.90669528     0.03650
C38         C  0.62801336  0.46456223  0.92912664    -0.12500
C39         C  0.59921904  0.43965807  0.92115322     0.01150
C40         C  0.57661289  0.44618646  0.89014850    -0.11020
C41         C  0.58163562  0.47770616  0.86852003     0.03640
C42         C  0.61023584  0.50230041  0.87694116    -0.10440
H43         H  0.64507416  0.46040286  0.95338239     0.09240
H44         H  0.55401468  0.42765579  0.88363841     0.06770
H45         H  0.61313503  0.52729443  0.86085888     0.06610
C46         C  0.43939632  0.08235444  0.90025563     0.03650
C47         C  0.46001426  0.07971103  0.86771622    -0.12500
C48         C  0.49173002  0.10162881  0.86255061     0.01150
C49         C  0.50088829  0.12803856  0.88956954    -0.11020
C50         C  0.47991805  0.13134060  0.92204563     0.03640
C51         C  0.44925363  0.10828357  0.92709577    -0.10440
H52         H  0.45268101  0.05880760  0.84760655     0.09240
H53         H  0.52550042  0.14468509  0.88636549     0.06770
H54         H  0.43399789  0.10916973  0.95282785     0.06610
In55       In  0.54064452  0.28585405  0.08532986     1.36870
C56         C  0.55984480  0.33317725  0.03311000     0.78100
O57         O  0.59015022  0.30779170  0.11611041    -0.60340
O58         O  0.57620869  0.25145873  0.12292295    -0.51250
C59         C  0.48457016  0.29721085  0.13180211     0.70770
O60         O  0.50157426  0.32338624  0.11654908    -0.46110
C61         C  0.51927060  0.23434019  0.03772135     0.75470
O62         O  0.53222202  0.33831257  0.05389211    -0.57970
O63         O  0.54903596  0.23195798  0.05590505    -0.48060
O64         O  0.57864166  0.30468984  0.04034530    -0.54400
C65         C  0.59820024  0.27725721  0.13067068     0.85650
O66         O  0.49639904  0.26554560  0.12357621    -0.56290
O67         O  0.50038747  0.26283381  0.04445870    -0.59590
C68         C  0.72289656  0.25710826  0.22863831     0.03650
C69         C  0.72897754  0.28059358  0.25876494    -0.12500
C70         C  0.75866632  0.27406915  0.28285776     0.01150
C71         C  0.78283312  0.24439882  0.27635374    -0.11020
C72         C  0.77711181  0.22062408  0.24618867     0.03840
C73         C  0.74739109  0.22769854  0.22195451    -0.10440
H74         H  0.71008436  0.30334064  0.26396882     0.09240
H75         H  0.80537198  0.23921157  0.29549604     0.06770
H76         H  0.74284390  0.20995810  0.19829246     0.06610
C77         C  0.75578174  0.80483941  0.14329682     0.03650
C78         C  0.72625380  0.79868368  0.16775446    -0.12500
C79         C  0.72028251  0.82219882  0.19815132     0.01150
C80         C  0.74532003  0.85116170  0.20465856    -0.11020
C81         C  0.77549123  0.85683347  0.18100341     0.03640
C82         C  0.78023834  0.83406024  0.15009213    -0.10440
H83         H  0.70800540  0.77545154  0.16314323     0.09240
H84         H  0.74117972  0.86959581  0.22787581     0.06770
H85         H  0.80304284  0.83911827  0.13135589     0.06610
In86       In  0.78943847  0.66011524  0.96297635     1.36870
C87         C  0.74061400  0.60859673  0.94467083     0.78100
O88         O  0.76735658  0.69276894  0.91475338    -0.60340
O89         O  0.82477249  0.69450412  0.92565725    -0.51250
C90         C  0.77950950  0.70631560  0.01942519     0.70770
O91         O  0.75291102  0.69178436  0.00212926    -0.46110
C92         C  0.84043846  0.61233733  0.98599431     0.75470
O93         O  0.73535669  0.63107956  0.97077631    -0.57970
O94         O  0.84350929  0.63005902  0.95625935    -0.48060
O95         O  0.77006790  0.61378985  0.92674762    -0.54400
C96         C  0.79861649  0.70469949  0.90498673     0.85650
O97         O  0.81097758  0.69838512  0.00664134    -0.56290
O98         O  0.81142033  0.61944550  0.00396662    -0.59590
C99         C  0.85367080  0.81819678  0.72389352     0.03650
C100        C  0.84596632  0.79285311  0.75209867    -0.12500
C101        C  0.81628678  0.79875314  0.77655657     0.01150
C102        C  0.79331683  0.82978886  0.77158767    -0.11020
C103        C  0.79989388  0.85453215  0.74262733     0.03640
C104        C  0.83030430  0.84889613  0.71924927    -0.10440
H105        H  0.86342351  0.76866938  0.75530459     0.09240
H106        H  0.77063986  0.83503434  0.79047161     0.06770
H107        H  0.83578022  0.86853375  0.69743883     0.06610
C108        C  0.22050262  0.32019564  0.69640046     0.03650
C109        C  0.24619418  0.34872771  0.70248975    -0.12500
C110        C  0.27528911  0.35519097  0.67769335     0.01150
C111        C  0.28025837  0.33110730  0.64770584    -0.11020
C112        C  0.25542110  0.30199432  0.64137199     0.03640
C113        C  0.22481532  0.29774457  0.66492288    -0.10440
H114        H  0.24338149  0.36645979  0.72639927     0.09240
H115        H  0.30330937  0.33522646  0.62905806     0.06770
H116        H  0.20469595  0.27647601  0.65892463     0.06610
C117        C  0.81741569  0.27450051  0.64605075     0.03650
C118        C  0.79412431  0.24399156  0.65145923    -0.12500
C119        C  0.80116437  0.21863710  0.67989339     0.01150
C120        C  0.83108372  0.22474640  0.70395563    -0.11020
C121        C  0.85378522  0.25574690  0.69964276     0.03640
C122        C  0.84746103  0.27998172  0.67018232    -0.10440
H123        H  0.77054608  0.23982464  0.63336470     0.09240
H124        H  0.83672042  0.20544459  0.72608439     0.06770
H125        H  0.86608206  0.30297655  0.66599254     0.06610
C126        C  0.12857667  0.99853257  0.40180854     0.03650
C127        C  0.10455466  0.99900183  0.37142141    -0.12500
C128        C  0.07631787  0.97267551  0.36843604     0.01150
C129        C  0.07361972  0.94458016  0.39478822    -0.11020
C130        C  0.09807782  0.94361383  0.42489137     0.03640
C131        C  0.12584779  0.97035982  0.42799112    -0.10440
H132        H  0.10622334  0.02125020  0.35156325     0.09240
H133        H  0.05122096  0.92479868  0.39298270     0.06770
H134        H  0.14432880  0.97016809  0.45161937     0.06610
C135        C  0.27339845  0.71994111  0.74464804     0.03650
C136        C  0.27844957  0.74276437  0.77550679    -0.12500
C137        C  0.25508075  0.77330911  0.78149871     0.01150
C138        C  0.22644076  0.78060090  0.75606501    -0.11020
C139        C  0.22092256  0.75748377  0.72541903     0.03640
C140        C  0.24499494  0.72766400  0.71938099    -0.10440
H141        H  0.30032970  0.73642944  0.79505846     0.09240
H142        H  0.20824617  0.80410728  0.76013950     0.06770
H143        H  0.24077115  0.70966150  0.69584095     0.06610
C144        C  0.31710802  0.77829245  0.14779498     0.03650
C145        C  0.34909828  0.78225201  0.16938547    -0.12500
C146        C  0.35811631  0.75579332  0.19620011     0.01150
C147        C  0.33477885  0.72515996  0.20093698    -0.11020
C148        C  0.30129353  0.72190833  0.18108582     0.03640
C149        C  0.29296307  0.74882180  0.15428528    -0.10440
H150        H  0.36713987  0.80565729  0.16496514     0.09240
H151        H  0.34290518  0.70391907  0.22030569     0.06770
H152        H  0.26774644  0.74705570  0.13813057     0.06610
C153        C  0.99353030  0.47282856  0.06288606     0.03650
C154        C  0.96617468  0.49969033  0.05595146    -0.12500
C155        C  0.94215249  0.49609565  0.02571927     0.01150
C156        C  0.94626490  0.46633850  0.00136237    -0.11020
C157        C  0.97340906  0.43942939  0.00790117     0.03640
C158        C  0.99628766  0.44230960  0.03905921    -0.10440
H159        H  0.96450967  0.52420139  0.07303487     0.09240
H160        H  0.92932836  0.46488023  0.97666347     0.06770
H161        H  0.01773303  0.42174306  0.04345457     0.06610
In162      In  0.15870976  0.53821101  0.21308962     1.36870
C163        C  0.10943590  0.56301318  0.26122424     0.78100
O164        O  0.19470618  0.58460810  0.23346038    -0.60340
O165        O  0.18958521  0.57715517  0.17595315    -0.51250
C166        C  0.20631678  0.48234578  0.22303000     0.70770
O167        O  0.19229988  0.50022288  0.24943540    -0.46110
C168        C  0.10903935  0.51244394  0.16575193     0.75470
O169        O  0.13127710  0.53669923  0.26846293    -0.57970
O170        O  0.13002150  0.53918006  0.15828212    -0.48060
O171        O  0.11298891  0.57681985  0.22957080    -0.54400
C172        C  0.20313741  0.59609620  0.20181314     0.85650
O173        O  0.19590688  0.49309009  0.19165687    -0.56290
O174        O  0.11353040  0.49875804  0.19738980    -0.59590
In175      In  0.03704063  0.29154409  0.83998922     1.36870
C176        C  0.01567911  0.33928155  0.89109674     0.78100
O177        O  0.98562557  0.31091855  0.81062424    -0.60340
O178        O  0.00354945  0.25598086  0.80129820    -0.51250
C179        C  0.09460754  0.30257310  0.79520036     0.70770
O180        O  0.07390641  0.32844890  0.80623697    -0.46110
C181        C  0.06078207  0.24428009  0.89023795     0.75470
O182        O  0.03966327  0.34699241  0.86694303    -0.57970
O183        O  0.03321587  0.23759480  0.86974596    -0.48060
O184        O  0.00132774  0.30777223  0.88759799    -0.54400
C185        C  0.98010515  0.28084095  0.79420313     0.85650
O186        O  0.08496203  0.27118659  0.80636034    -0.56290
O187        O  0.07698602  0.27428355  0.88383702    -0.59590
C188        C  0.07596926  0.09965664  0.05206433     0.03650
C189        C  0.07280090  0.13074480  0.02926835    -0.12500
C190        C  0.09867526  0.13692014  0.00117142     0.01150
C191        C  0.12975954  0.11378366  0.99826820    -0.11020
C192        C  0.13320565  0.08231810  0.02055432     0.03640
C193        C  0.10600572  0.07534624  0.04723860    -0.10440
H194        H  0.04913125  0.14902278  0.03211780     0.09240
H195        H  0.15017935  0.11913051  0.97706588     0.06770
H196        H  0.10744078  0.05026622  0.06340033     0.06610
In197      In  0.28812866  0.91712229  0.96352722     1.36870
C198        C  0.33759104  0.96680255  0.94151771     0.78100
O199        O  0.31067827  0.87879745  0.91988463    -0.60340
O200        O  0.25276378  0.88653913  0.92264644    -0.51250
C201        C  0.29727319  0.87219715  0.02092202     0.70770
O202        O  0.32352075  0.88989721  0.00662784    -0.46110
C203        C  0.23870903  0.96736234  0.98423015     0.75470
O204        O  0.34461991  0.94258086  0.96543718    -0.57970
O205        O  0.23446525  0.94702068  0.95630573    -0.48060
O206        O  0.30567558  0.96427094  0.92761324    -0.54400
C207        C  0.27949173  0.87137944  0.90614455     0.85650
O208        O  0.26605644  0.87774218  0.00622577    -0.56290
O209        O  0.26723383  0.96025109  0.00315212    -0.59590
In210      In  0.91879663  0.03738182  0.21096329     1.36870
C211        C  0.96633461  0.00814760  0.25881167     0.78100
O212        O  0.88649833  0.98945796  0.23271519    -0.60340
O213        O  0.88165891  0.00197724  0.17567386    -0.51250
C214        C  0.87559400  0.09587158  0.22383114     0.70770
O215        O  0.90289054  0.08767057  0.24397318    -0.46110
C216        C  0.96699048  0.06162604  0.16167263     0.75470
O217        O  0.93823057  0.02668954  0.26860573    -0.57970
O218        O  0.94728123  0.03344584  0.15607983    -0.48060
O219        O  0.96968014  0.00455779  0.22441125    -0.54400
C220        C  0.87213061  0.98146238  0.20207406     0.85650
O221        O  0.86999785  0.07369764  0.19765970    -0.56290
O222        O  0.96064261  0.07827343  0.19151039    -0.59590
In223      In  0.03824676  0.78773390  0.58376770     1.36870
C224        C  0.06631006  0.83655603  0.53743178     0.78100
O225        O  0.07373070  0.80669226  0.63105996    -0.60340
O226        O  0.08899393  0.75728864  0.60322853    -0.51250
C227        C  0.97823495  0.79658120  0.62549504     0.70770
O228        O  0.98762542  0.81938497  0.60108625    -0.46110
C229        C  0.01370123  0.73850620  0.53525962     0.75470
O230        O  0.04535565  0.84580426  0.56379817    -0.57970
O231        O  0.03227974  0.72963542  0.56346528    -0.48060
O232        O  0.07399272  0.80272736  0.53620586    -0.54400
C233        C  0.09632135  0.78027031  0.62830697     0.85650
O234        O  0.99970823  0.76923803  0.62870841    -0.56290
O235        O  0.00584353  0.77234709  0.53345836    -0.59590
In236      In  0.65806393  0.03727365  0.71237480     1.36870
C237        C  0.60757951  0.05971285  0.76054710     0.78100
O238        O  0.69733010  0.08027356  0.73300311    -0.60340
O239        O  0.68598101  0.07877108  0.67564379    -0.51250
C240        C  0.70492447  0.98111932  0.72156789     0.70770
O241        O  0.69698515  0.00321695  0.74724423    -0.46110
C242        C  0.60674693  0.01573609  0.66472998     0.75470
O243        O  0.62480719  0.02952050  0.76356193    -0.57970
O244        O  0.63118311  0.03932397  0.65677399    -0.48060
O245        O  0.61787880  0.07949288  0.73396421    -0.54400
C246        C  0.70267786  0.09465752  0.70186064     0.85650
O247        O  0.68923791  0.98784422  0.69127742    -0.56290
O248        O  0.61003923  0.00184708  0.69642160    -0.59590
In249      In  0.28749862  0.15832940  0.45970836     1.36870
C250        C  0.23719159  0.10830151  0.44018608     0.78100
O251        O  0.26548076  0.19307967  0.41304906    -0.60340
O252        O  0.32325100  0.19315196  0.42286020    -0.51250
C253        C  0.27614671  0.20537569  0.51516599     0.70770
O254        O  0.25057655  0.18607090  0.50132245    -0.46110
C255        C  0.33870207  0.11038264  0.48213075     0.75470
O256        O  0.23145089  0.13181348  0.46528725    -0.57970
O257        O  0.33621271  0.12117902  0.44922212    -0.48060
O258        O  0.26829313  0.11105093  0.42475057    -0.54400
C259        C  0.29672329  0.20520174  0.40365796     0.85650
O260        O  0.30755545  0.20032086  0.50067537    -0.56290
O261        O  0.31562969  0.12476755  0.50393874    -0.59590
In262      In  0.41684516  0.53835714  0.71401201     1.36870
C263        C  0.46828970  0.51992410  0.76367145     0.78100
O264        O  0.38164925  0.49177093  0.73458152    -0.60340
O265        O  0.38405473  0.50023958  0.67711871    -0.51250
C266        C  0.37132649  0.59550039  0.72425740     0.70770
O267        O  0.37960348  0.57328166  0.74968990    -0.46110
C268        C  0.46512726  0.55900951  0.66331040     0.75470
O269        O  0.44511356  0.54550116  0.76879839    -0.57970
O270        O  0.44796442  0.52875218  0.66172838    -0.48060
O271        O  0.46424647  0.50323577  0.73346669    -0.54400
C272        C  0.37196494  0.48066709  0.70312405     0.85650
O273        O  0.38522719  0.58772015  0.69334723    -0.56290
O274        O  0.45697546  0.57913321  0.69057643    -0.59590
In275      In  0.78980900  0.41645662  0.46411675     1.36870
C276        C  0.74333406  0.46780108  0.48802483     0.78100
O277        O  0.76721794  0.37988333  0.50838230    -0.60340
O278        O  0.82568694  0.38211870  0.50175458    -0.51250
C279        C  0.77842391  0.37185370  0.40684682     0.70770
O280        O  0.75252260  0.38222253  0.42780686    -0.46110
C281        C  0.84016510  0.46442078  0.44211732     0.75470
O282        O  0.73705543  0.44898936  0.45936963    -0.57970
O283        O  0.84429380  0.44476351  0.47059927    -0.48060
O284        O  0.77321513  0.46034846  0.50438542    -0.54400
C285        C  0.79858375  0.36917097  0.51932397     0.85650
O286        O  0.81004641  0.38356487  0.41572096    -0.56290
O287        O  0.81065244  0.45849116  0.42443798    -0.59590
In288      In  0.53950935  0.78469092  0.34103813     1.36870
C289        C  0.55885201  0.73079766  0.38740789     0.78100
O290        O  0.57216322  0.77269789  0.28987731    -0.60340
O291        O  0.59267653  0.81332206  0.32704700    -0.51250
C292        C  0.48293034  0.77665195  0.29448848     0.70770
O293        O  0.49974191  0.74967411  0.30877204    -0.46110
C294        C  0.52175468  0.83719915  0.38940014     0.75470
O295        O  0.52612412  0.74223078  0.38395388    -0.57970
O296        O  0.54746067  0.84112149  0.36621507    -0.48060
O297        O  0.58167041  0.74570995  0.36602046    -0.54400
C298        C  0.59745441  0.79552676  0.29742663     0.85650
O299        O  0.49560619  0.80787631  0.30310170    -0.56290
O300        O  0.50425588  0.80740356  0.38638662    -0.59590
C301        C  0.98343030  0.08262773  0.09944068    -0.11740
C302        C  0.99515772  0.07400535  0.13525658     0.05260
C303        C  0.03349090  0.07447453  0.14394940    -0.07030
C304        C  0.05891441  0.08320456  0.11608755    -0.07780
C305        C  0.04728264  0.09139014  0.08006540    -0.02330
C306        C  0.00892661  0.09117525  0.07163211     0.04490
N307        N  0.99539537  0.09777835  0.03489258     0.66990
H308        H  0.95413181  0.08157765  0.09279002     0.15890
H309        H  0.08825611  0.08374156  0.12258294     0.15600
N310        N  0.04751594  0.06436140  0.17982575     0.74700
O311        O  0.01084729  0.08260849  0.00753727    -0.38750
O312        O  0.96538605  0.11518565  0.03008373    -0.38690
O313        O  0.07917014  0.04962204  0.18271638    -0.39400
O314        O  0.03104303  0.07442300  0.20883052    -0.39460
C315        C  0.16735109  0.04378712  0.97543129    -0.11740
C316        C  0.16231991  0.05437841  0.01237572     0.05260
C317        C  0.18363930  0.03685378  0.04022797    -0.07030
C318        C  0.20828380  0.00836415  0.03030198    -0.07780
C319        C  0.21291524  0.99775808  0.99332354    -0.02330
C320        C  0.19299676  0.01656234  0.96546751     0.04490
N321        N  0.19966894  0.00977888  0.92695292     0.66990
H322        H  0.15135519  0.05709906  0.95388669     0.15890
H323        H  0.22426714  0.99458547  0.05157513     0.15600
N324        N  0.18143824  0.04810100  0.07827030     0.74700
O325        O  0.17303298  0.01047818  0.90430397    -0.38750
O326        O  0.23243792  0.00973464  0.91475119    -0.38690
O327        O  0.18670846  0.02487487  0.10367654    -0.39400
O328        O  0.17836912  0.08180512  0.08661797    -0.39460
C329        C  0.08222300  0.20114750  0.98313744    -0.11740
C330        C  0.09095821  0.16492859  0.97244144     0.05260
C331        C  0.09077893  0.15554483  0.93448931    -0.07030
C332        C  0.08221912  0.18263277  0.90835732    -0.07780
C333        C  0.07324304  0.21865335  0.91905552    -0.02330
C334        C  0.07337811  0.22829400  0.95694214     0.04490
N335        N  0.06259574  0.26445587  0.96957256     0.66990
H336        H  0.08225158  0.20831007  0.01217871     0.15890
H337        H  0.08128734  0.17520122  0.87938087     0.15600
N338        N  0.09706395  0.11836896  0.92205913     0.74700
O339        O  0.04456410  0.26796826  0.99920393    -0.38750
O340        O  0.07499537  0.29300516  0.95413568    -0.38690
O341        O  0.08021890  0.09187871  0.93703773    -0.39400
O342        O  0.11548524  0.11246226  0.89304712    -0.39460
C343        C  0.01620542  0.41811597  0.96015926    -0.11740
C344        C  0.98274615  0.41239297  0.97888146     0.05260
C345        C  0.96016603  0.38178260  0.96946484    -0.07030
C346        C  0.97186779  0.35858703  0.94043416    -0.07780
C347        C  0.00530356  0.36461812  0.92148543    -0.02330
C348        C  0.02815111  0.39431128  0.93223681     0.04490
N349        N  0.06423421  0.39981467  0.91655787     0.66990
H350        H  0.03373954  0.44106681  0.96804430     0.15890
H351        H  0.95471815  0.33545250  0.93243161     0.15600
N352        N  0.92634887  0.37300700  0.98904676     0.74700
O353        O  0.07494891  0.43201666  0.90892303    -0.38750
O354        O  0.08771156  0.37389183  0.91703166    -0.38690
O355        O  0.91458916  0.39291229  0.01513919    -0.39400
O356        O  0.90860483  0.34404461  0.98121286    -0.39460
C357        C  0.05984656  0.47416154  0.08147650    -0.11740
C358        C  0.02249939  0.47915639  0.09151219     0.05260
C359        C  0.01412644  0.49256636  0.12726170    -0.07030
C360        C  0.04331260  0.50286420  0.15079262    -0.07780
C361        C  0.08048845  0.49915776  0.14003152    -0.02330
C362        C  0.08912603  0.48323926  0.10536262     0.04490
N363        N  0.12667730  0.47471685  0.09412194     0.66990
H364        H  0.06640996  0.46407127  0.05410680     0.15890
H365        H  0.03701781  0.51390382  0.17789981     0.15600
N366        N  0.97653893  0.49527766  0.14034277     0.74700
O367        O  0.13245223  0.45090860  0.06927687    -0.38750
O368        O  0.15427635  0.49046452  0.10854109    -0.38690
O369        O  0.95305837  0.47093000  0.13184883    -0.39400
O370        O  0.96770653  0.51976612  0.16357911    -0.39460
C371        C  0.28590109  0.85780565  0.08639746    -0.11740
C372        C  0.30256126  0.84769728  0.05289015     0.05260
C373        C  0.32312106  0.81442182  0.05062177    -0.07030
C374        C  0.32670585  0.79254451  0.08233605    -0.07780
C375        C  0.31063161  0.80290218  0.11598840    -0.02330
C376        C  0.28964621  0.83594099  0.11828073     0.04490
N377        N  0.27233512  0.84795366  0.15218150     0.66990
H378        H  0.26986383  0.88312463  0.08759476     0.15890
H379        H  0.34258844  0.76712559  0.08094707     0.15600
N380        N  0.33920956  0.80144834  0.01653788     0.74700
O381        O  0.26218861  0.88112303  0.15601205    -0.38750
O382        O  0.26508598  0.82541416  0.17763061    -0.38690
O383        O  0.35227056  0.82366026  0.99323475    -0.39400
O384        O  0.34334960  0.76727053  0.01102817    -0.39460
C385        C  0.24597834  0.64395258  0.22634344    -0.11740
C386        C  0.22707611  0.62889958  0.19596464     0.05260
C387        C  0.23164076  0.64544190  0.16097083    -0.07030
C388        C  0.25686304  0.67454044  0.15686055    -0.07780
C389        C  0.27553044  0.69009346  0.18729600    -0.02330
C390        C  0.26899937  0.67490803  0.22277486     0.04490
N391        N  0.28383110  0.69136702  0.25570470     0.66990
H392        H  0.24189711  0.63226436  0.25351289     0.15890
H393        H  0.26118158  0.68557179  0.12949240     0.15600
N394        N  0.20957603  0.63463171  0.12977316     0.74700
O395        O  0.28054008  0.72563894  0.26110832    -0.38750
O396        O  0.29582251  0.67119578  0.28149479    -0.38690
O397        O  0.17465517  0.63491080  0.13226459    -0.39400
O398        O  0.22418827  0.63234959  0.09823172    -0.39460
C399        C  0.38541818  0.75952166  0.25894806    -0.11740
C400        C  0.39095389  0.76071879  0.22061868     0.05260
C401        C  0.42693139  0.76794088  0.20684541    -0.07030
C402        C  0.45617667  0.77381147  0.23187570    -0.07780
C403        C  0.45063293  0.77184381  0.27008287    -0.02330
C404        C  0.41467463  0.76490205  0.28406751     0.04490
N405        N  0.40686121  0.76414714  0.32317126     0.66990
H406        H  0.35776352  0.75450463  0.26937065     0.15890
H407        H  0.48384052  0.77890093  0.22146890     0.15600
N408        N  0.43462547  0.76814657  0.16789613     0.74700
O409        O  0.37414676  0.76913989  0.33455729    -0.38750
O410        O  0.43183746  0.75684185  0.34649882    -0.38690
O411        O  0.45982953  0.78858920  0.15523042    -0.39400
O412        O  0.41932872  0.74508194  0.14667777    -0.39460
C413        C  0.12242905  0.76617375  0.68934157    -0.11740
C414        C  0.12866720  0.77643838  0.65268699     0.05260
C415        C  0.16537852  0.78084537  0.63971113    -0.07030
C416        C  0.19504786  0.77396124  0.66405216    -0.07780
C417        C  0.18878192  0.76330087  0.70068693    -0.02330
C418        C  0.15203476  0.75889749  0.71341278     0.04490
N419        N  0.14433129  0.74541324  0.74989346     0.66990
H420        H  0.09421964  0.76224512  0.69878287     0.15890
H421        H  0.22330863  0.77762630  0.65470076     0.15600
N422        N  0.17306247  0.79298585  0.60261306     0.74700
O423        O  0.11513661  0.75532959  0.76638701    -0.38750
O424        O  0.16376459  0.71980755  0.76355141    -0.38690
O425        O  0.15027274  0.81311415  0.58535947    -0.39400
O426        O  0.20432229  0.78665289  0.58825195    -0.39460
C427        C  0.29685577  0.81068081  0.82160924    -0.11740
C428        C  0.26096552  0.79765588  0.81413029     0.05260
C429        C  0.23137446  0.80917788  0.83705342    -0.07030
C430        C  0.23827635  0.83389626  0.86607307    -0.07780
C431        C  0.27415621  0.84686031  0.87367022    -0.02330
C432        C  0.30379514  0.83528079  0.85077513     0.04490
N433        N  0.34073515  0.84909194  0.85564704     0.66990
H434        H  0.31958195  0.80265268  0.80375957     0.15890
H435        H  0.21543297  0.84204410  0.88370898     0.15600
N436        N  0.19459497  0.79476552  0.83250859     0.74700
O437        O  0.36804308  0.82730032  0.85352077    -0.38750
O438        O  0.34647271  0.88342402  0.85523515    -0.38690
O439        O  0.18980562  0.76057493  0.82805466    -0.39400
O440        O  0.16674380  0.81530701  0.83776848    -0.39460
C441        C  0.32962935  0.69161018  0.71810515    -0.11740
C442        C  0.29746245  0.68741966  0.73923974     0.05260
C443        C  0.29009814  0.65323366  0.75650122    -0.07030
C444        C  0.31537716  0.62400018  0.75183178    -0.07780
C445        C  0.34727030  0.62798731  0.73018347    -0.02330
C446        C  0.35499776  0.66248289  0.71378350     0.04490
N447        N  0.38932166  0.66911463  0.69481209     0.66990
H448        H  0.33560686  0.71823501  0.70598660     0.15890
H449        H  0.30960723  0.59750170  0.76430335     0.15600
N450        N  0.25739839  0.64755605  0.77858197     0.74700
O451        O  0.39048588  0.69210668  0.66872456    -0.38750
O452        O  0.41939392  0.65670982  0.70777685    -0.38690
O453        O  0.22753714  0.66435197  0.77140720    -0.39400
O454        O  0.25727635  0.62310362  0.80333668    -0.39460
C455        C  0.05582756  0.97403827  0.30322445    -0.11740
C456        C  0.04689276  0.97771728  0.34061318     0.05260
C457        C  0.01027262  0.98709725  0.35091184    -0.07030
C458        C  0.98413591  0.99482811  0.32336517    -0.07780
C459        C  0.99340401  0.99313795  0.28579994    -0.02330
C460        C  0.02925831  0.98053052  0.27562080     0.04490
N461        N  0.03929361  0.97399877  0.23784597     0.66990
H462        H  0.08362782  0.96559240  0.29553999     0.15890
H463        H  0.95662620  0.00372273  0.33152743     0.15600
N464        N  0.99940456  0.99040114  0.38895568     0.74700
O465        O  0.07120876  0.98275704  0.22671907    -0.38750
O466        O  0.02016104  0.95217233  0.21850172    -0.38690
O467        O  0.02020845  0.00625265  0.41205068    -0.39400
O468        O  0.96717268  0.98113872  0.39870797    -0.39460
C469        C  0.17191150  0.08722492  0.43603892    -0.11740
C470        C  0.20957489  0.08012329  0.42946576     0.05260
C471        C  0.22002749  0.04656240  0.41231729    -0.07030
C472        C  0.19266894  0.02153316  0.40131138    -0.07780
C473        C  0.15515230  0.02862895  0.40804296    -0.02330
C474        C  0.14447910  0.06186110  0.42567126     0.04490
N475        N  0.10637367  0.06976524  0.43447853     0.66990
H476        H  0.16371256  0.11286907  0.44915557     0.15890
H477        H  0.20083741  0.99530551  0.38934256     0.15600
N478        N  0.25815413  0.03576833  0.40933962     0.74700
O479        O  0.09847976  0.08740931  0.46350171    -0.38750
O480        O  0.08096918  0.06327126  0.41141954    -0.38690
O481        O  0.27811225  0.03553102  0.43793324    -0.39400
O482        O  0.26949754  0.01928786  0.38077339    -0.39460
C483        C  0.09340946  0.87889565  0.44584594    -0.11740
C484        C  0.09240482  0.91652734  0.45465609     0.05260
C485        C  0.08563777  0.92764392  0.49148795    -0.07030
C486        C  0.07921912  0.90069802  0.51835724    -0.07780
C487        C  0.07920562  0.86305107  0.50940584    -0.02330
C488        C  0.08744580  0.85201557  0.47282872     0.04490
N489        N  0.08849260  0.81391181  0.46216911     0.66990
H490        H  0.09905233  0.87034640  0.41772758     0.15890
H491        H  0.07272896  0.90932249  0.54625849     0.15600
N492        N  0.08335991  0.96593137  0.50181690     0.74700
O493        O  0.06935221  0.80305986  0.43507300    -0.38750
O494        O  0.11374050  0.79316889  0.47464122    -0.38690
O495        O  0.06630182  0.98872810  0.48163176    -0.39400
O496        O  0.09453214  0.97621003  0.53321503    -0.39460
C497        C  0.76038906  0.18067803  0.71959574    -0.11740
C498        C  0.77676985  0.18614357  0.68497758     0.05260
C499        C  0.76810037  0.16175650  0.65564773    -0.07030
C500        C  0.74294892  0.13289721  0.66174419    -0.07780
C501        C  0.72678844  0.12724955  0.69647322    -0.02330
C502        C  0.73515890  0.15196353  0.72561241     0.04490
N503        N  0.71706925  0.14959509  0.76081188     0.66990
H504        H  0.76616541  0.19990149  0.74179909     0.15890
H505        H  0.73699472  0.11383641  0.63946366     0.15600
N506        N  0.78547063  0.16493923  0.62008140     0.74700
O507        O  0.73503860  0.15615987  0.79000992    -0.38750
O508        O  0.68218703  0.14722007  0.76242243    -0.38690
O509        O  0.81936537  0.17314883  0.61759765    -0.39400
O510        O  0.76810942  0.15558484  0.59128198    -0.39460
C511        C  0.92092613  0.25241312  0.71231966    -0.11740
C512        C  0.88538654  0.26196262  0.72486894     0.05260
C513        C  0.88117924  0.27902269  0.75985914    -0.07030
C514        C  0.91300860  0.28554681  0.78133693    -0.07780
C515        C  0.94842220  0.27523744  0.76908662    -0.02330
C516        C  0.95266931  0.25913880  0.73379260     0.04490
N517        N  0.98874901  0.25116985  0.71862684     0.66990
H518        H  0.92392558  0.24043153  0.68506269     0.15890
H519        H  0.91011689  0.29798235  0.80840124     0.15600
N520        N  0.84547758  0.29048133  0.77388175     0.74700
O521        O  0.99243392  0.22649655  0.69425632    -0.38750
O522        O  0.01599322  0.27179020  0.72576111    -0.38690
O523        O  0.81619921  0.27377083  0.76484697    -0.39400
O524        O  0.84342272  0.31564248  0.79794982    -0.39460
C525        C  0.80627560  0.28361244  0.57894425    -0.11740
C526        C  0.81127153  0.29945230  0.61405856     0.05260
C527        C  0.81160861  0.33838057  0.61754282    -0.07030
C528        C  0.80815083  0.36015464  0.58574688    -0.07780
C529        C  0.80301037  0.34422586  0.55088702    -0.02330
C530        C  0.80157678  0.30539699  0.54720284     0.04490
N531        N  0.79587416  0.28755334  0.51195891     0.66990
H532        H  0.80613658  0.25384147  0.57630119     0.15890
H533        H  0.80839458  0.38995548  0.58829818     0.15600
N534        N  0.81398779  0.35626524  0.65295291     0.74700
O535        O  0.80486266  0.25412530  0.50759420    -0.38750
O536        O  0.77949514  0.30393669  0.48586996    -0.38690
O537        O  0.82987894  0.38710696  0.65598337    -0.39400
O538        O  0.79638672  0.34370178  0.68022151    -0.39460
C539        C  0.14453022  0.27659838  0.75562969    -0.11740
C540        C  0.12740600  0.30789305  0.77105358     0.05260
C541        C  0.14201366  0.34308873  0.76299312    -0.07030
C542        C  0.17122799  0.34617772  0.73768714    -0.07780
C543        C  0.18878065  0.31487682  0.72246973    -0.02330
C544        C  0.17565601  0.27947547  0.73263480     0.04490
N545        N  0.19439766  0.24619403  0.72157610     0.66990
H546        H  0.13437135  0.24938419  0.76249414     0.15890
H547        H  0.18080472  0.37350622  0.73056874     0.15600
N548        N  0.12914700  0.37571621  0.78159234     0.74700
O549        O  0.22917083  0.24354998  0.72479974    -0.38750
O550        O  0.17593382  0.21780499  0.71334514    -0.38690
O551        O  0.12907020  0.37676445  0.81641605    -0.39400
O552        O  0.12541014  0.40546949  0.76391490    -0.39460
C553        C  0.23139947  0.27015456  0.58526279    -0.11740
C554        C  0.26101680  0.27638192  0.60968887     0.05260
C555        C  0.29564750  0.25918167  0.60267640    -0.07030
C556        C  0.29994557  0.23741775  0.57084620    -0.07780
C557        C  0.27029943  0.23111047  0.54650050    -0.02330
C558        C  0.23558094  0.24793516  0.55373514     0.04490
N559        N  0.20480957  0.24419630  0.52876784     0.66990
H560        H  0.20505006  0.28378239  0.59008849     0.15890
H561        H  0.32632925  0.22388802  0.56591689     0.15600
N562        N  0.32609927  0.26199185  0.62825427     0.74700
O563        O  0.17221844  0.24200719  0.54120823    -0.38750
O564        O  0.20944304  0.24876688  0.49456975    -0.38690
O565        O  0.32037437  0.26050355  0.66257068    -0.39400
O566        O  0.35908139  0.26123238  0.61664600    -0.39460
C567        C  0.31608222  0.39280053  0.71846069    -0.11740
C568        C  0.30032979  0.38727329  0.68343750     0.05260
C569        C  0.30884536  0.41231028  0.65475411    -0.07030
C570        C  0.33307745  0.44175844  0.66182835    -0.07780
C571        C  0.34843211  0.44760121  0.69700505    -0.02330
C572        C  0.34013289  0.42231604  0.72554502     0.04490
N573        N  0.35654882  0.42532661  0.76151736     0.66990
H574        H  0.31037284  0.37335985  0.74038012     0.15890
H575        H  0.33888263  0.46109650  0.63985771     0.15600
N576        N  0.29196262  0.40941166  0.61889086     0.74700
O577        O  0.33668728  0.42136787  0.78986341    -0.38750
O578        O  0.39139488  0.42502244  0.76493075    -0.38690
O579        O  0.25773985  0.40282737  0.61583570    -0.39400
O580        O  0.31014402  0.41788670  0.59043288    -0.39460
C581        C  0.78969471  0.92220320  0.74202516    -0.11740
C582        C  0.77522848  0.88668428  0.73678511     0.05260
C583        C  0.73776663  0.88247124  0.72605349    -0.07030
C584        C  0.71568242  0.91404372  0.72115034    -0.07780
C585        C  0.73009083  0.94950457  0.72653251    -0.02330
C586        C  0.76765820  0.95387719  0.73690538     0.04490
N587        N  0.78413425  0.98982463  0.74131661     0.66990
H588        H  0.81855218  0.92515186  0.74983044     0.15890
H589        H  0.68695830  0.91098805  0.71287002     0.15600
N590        N  0.72197649  0.84668332  0.71921927     0.74700
O591        O  0.81246160  0.99381675  0.76144440    -0.38750
O592        O  0.77302815  0.01687676  0.72233373    -0.38690
O593        O  0.68802946  0.84106827  0.72544466    -0.39400
O594        O  0.74064294  0.82191191  0.70314780    -0.39460
C595        C  0.88053661  0.81479139  0.66077810    -0.11740
C596        C  0.88605052  0.81273831  0.69910305     0.05260
C597        C  0.92205285  0.80501773  0.71285019    -0.07030
C598        C  0.95117978  0.79893603  0.68789753    -0.07780
C599        C  0.94582404  0.80213106  0.64971101    -0.02330
C600        C  0.90997119  0.81007253  0.63590765     0.04490
N601        N  0.90234715  0.81153972  0.59701036     0.66990
H602        H  0.85297473  0.82016579  0.65005012     0.15890
H603        H  0.97874293  0.79317694  0.69844514     0.15600
N604        N  0.92996421  0.80482661  0.75177101     0.74700
O605        O  0.87355536  0.79632920  0.58435085    -0.38750
O606        O  0.92035851  0.83303877  0.57648385    -0.38690
O607        O  0.95416105  0.78309244  0.76463446    -0.39400
O608        O  0.91639019  0.82935341  0.77257529    -0.39460
C609        C  0.85495422  0.55487598  0.01987440    -0.11740
C610        C  0.86764393  0.58435224  0.99825795     0.05260
C611        C  0.90514023  0.58512359  0.98708293    -0.07030
C612        C  0.92841494  0.55550176  0.99626996    -0.07780
C613        C  0.91550143  0.52568825  0.01709406    -0.02330
C614        C  0.87829290  0.52526345  0.02955051     0.04490
N615        N  0.86356686  0.49555061  0.05164034     0.66990
H616        H  0.82614708  0.55438110  0.02826702     0.15890
H617        H  0.95719600  0.55597100  0.98771115     0.15600
N618        N  0.92039829  0.61614626  0.96776312     0.74700
O619        O  0.83341905  0.49981263  0.06882687    -0.38750
O620        O  0.87928711  0.46441656  0.05287458    -0.38690
O621        O  0.91325855  0.64857352  0.97845350    -0.39400
O622        O  0.94537970  0.61122775  0.94388255    -0.39460
C623        C  0.77278307  0.73734859  0.85015712    -0.11740
C624        C  0.80386617  0.72830568  0.87187964     0.05260
C625        C  0.83900829  0.74195841  0.86134115    -0.07030
C626        C  0.84194665  0.76491539  0.83045870    -0.07780
C627        C  0.81099259  0.77363685  0.80854615    -0.02330
C628        C  0.77595704  0.75911548  0.81826328     0.04490
N629        N  0.74377630  0.76473972  0.79542709     0.66990
H630        H  0.74584281  0.72646848  0.85741766     0.15890
H631        H  0.86892264  0.77584714  0.82333070     0.15600
N632        N  0.87217248  0.73250021  0.88108006     0.74700
O633        O  0.74631020  0.76229496  0.76078078    -0.38750
O634        O  0.71203277  0.76729287  0.80985982    -0.38690
O635        O  0.88360749  0.69954226  0.88082557    -0.39400
O636        O  0.89384838  0.75769991  0.89158860    -0.39460
C637        C  0.79624940  0.76313653  0.10645078    -0.11740
C638        C  0.76163182  0.78032935  0.11095883     0.05260
C639        C  0.73297718  0.77285273  0.08539610    -0.07030
C640        C  0.73934632  0.74777819  0.05656361    -0.07780
C641        C  0.77401498  0.73069260  0.05185531    -0.02330
C642        C  0.80273412  0.73816278  0.07751665     0.04490
N643        N  0.83796066  0.71961688  0.07576411     0.66990
H644        H  0.81805915  0.76822652  0.12641541     0.15890
H645        H  0.71739724  0.74273893  0.03675192     0.15600
N646        N  0.69811141  0.79202136  0.08701378     0.74700
O647        O  0.86737644  0.73722348  0.08240047    -0.38750
O648        O  0.83928241  0.68484373  0.07406346    -0.38690
O649        O  0.69747166  0.82656737  0.09139753    -0.39400
O650        O  0.66848670  0.77553497  0.07861716    -0.39460
C651        C  0.78866770  0.92323609  0.17690822    -0.11740
C652        C  0.80097563  0.88800682  0.18734194     0.05260
C653        C  0.83645034  0.88369208  0.20389782    -0.07030
C654        C  0.85854601  0.91523243  0.20891496    -0.07780
C655        C  0.84648641  0.95025891  0.19767253    -0.02330
C656        C  0.81078976  0.95460436  0.18214261     0.04490
N657        N  0.79598208  0.99045075  0.17302818     0.66990
H658        H  0.76118906  0.92628024  0.16511008     0.15890
H659        H  0.88593399  0.91246367  0.22097257     0.15600
N660        N  0.85048018  0.84833194  0.21621866     0.74700
O661        O  0.77076646  0.99351663  0.14899977    -0.38750
O662        O  0.80442641  0.01840469  0.19205976    -0.38690
O663        O  0.83711634  0.81843114  0.20440989    -0.39400
O664        O  0.87783000  0.84682916  0.23799186    -0.39460
C665        C  0.62373202  0.80044592  0.23481136    -0.11740
C666        C  0.62967266  0.80126696  0.27300955     0.05260
C667        C  0.66551637  0.80926071  0.28677438    -0.07030
C668        C  0.69433075  0.81654986  0.26177897    -0.07780
C669        C  0.68831217  0.81615963  0.22344192    -0.02330
C670        C  0.65222455  0.80872975  0.20996394     0.04490
N671        N  0.64337873  0.81203209  0.17149488     0.66990
H672        H  0.59609342  0.79529187  0.22423920     0.15890
H673        H  0.72199476  0.82147039  0.27234897     0.15600
N674        N  0.67360842  0.80861515  0.32565991     0.74700
O675        O  0.62074364  0.79000131  0.15667578    -0.38750
O676        O  0.65337402  0.84030986  0.15393413    -0.38690
O677        O  0.66049945  0.78353203  0.34586216    -0.39400
O678        O  0.69776045  0.83002541  0.33893246    -0.39460
C679        C  0.84050502  0.19328518  0.24245942    -0.11740
C680        C  0.80192086  0.18816760  0.24065887     0.05260
C681        C  0.78794814  0.15235880  0.23351917    -0.07030
C682        C  0.81286747  0.12311074  0.22759967    -0.07780
C683        C  0.85130158  0.12809929  0.23047648    -0.02330
C684        C  0.86532708  0.16369834  0.23799297     0.04490
N685        N  0.90443613  0.17085181  0.23929516     0.66990
H686        H  0.85150183  0.22062794  0.24743416     0.15890
H687        H  0.80209191  0.09577934  0.22207139     0.15600
N688        N  0.74883738  0.14474946  0.23373147     0.74700
O689        O  0.91743373  0.19817210  0.22215483    -0.38750
O690        O  0.92457741  0.15465867  0.26275625    -0.38690
O691        O  0.73554479  0.12101080  0.21191645    -0.39400
O692        O  0.72838824  0.15801292  0.25872651    -0.39460
C693        C  0.78567665  0.32962061  0.31133101    -0.11740
C694        C  0.76392812  0.29796757  0.31538770     0.05260
C695        C  0.74584557  0.29109553  0.34932659    -0.07030
C696        C  0.75017820  0.31651662  0.37836870    -0.07780
C697        C  0.77239751  0.34791302  0.37446515    -0.02330
C698        C  0.78987173  0.35497117  0.34032225     0.04490
N699        N  0.81016409  0.38847929  0.33399053     0.66990
H700        H  0.79852661  0.33514203  0.28491673     0.15890
H701        H  0.73709426  0.31121045  0.40470585     0.15600
N702        N  0.72325769  0.25881390  0.35494307     0.74700
O703        O  0.83667698  0.38885152  0.31130220    -0.38750
O704        O  0.79840859  0.41872745  0.34683128    -0.38690
O705        O  0.72999248  0.22909264  0.33799226    -0.39400
O706        O  0.69844859  0.25889466  0.37947266    -0.39460
C707        C  0.69502289  0.28263239  0.17181462    -0.11740
C708        C  0.69030512  0.26272652  0.20457285     0.05260
C709        C  0.65539007  0.24692650  0.21266377    -0.07030
C710        C  0.62614030  0.25163919  0.18742209    -0.07780
C711        C  0.63068984  0.27197313  0.15490630    -0.02330
C712        C  0.66575040  0.28720752  0.14657843     0.04490
N713        N  0.67270330  0.30553056  0.11206426     0.66990
H714        H  0.72210388  0.29375323  0.16541998     0.15890
H715        H  0.59918288  0.24011480  0.19360978     0.15600
N716        N  0.64903427  0.22587726  0.24579145     0.74700
O717        O  0.69717190  0.33026836  0.11014407    -0.38750
O718        O  0.65841734  0.29360307  0.08254932    -0.38690
O719        O  0.66605822  0.23325905  0.27532694    -0.39400
O720        O  0.62366024  0.20198696  0.24658652    -0.39460
C721        C  0.46307132  0.17891180  0.96855369    -0.11740
C722        C  0.49079998  0.15720455  0.95198724     0.05260
C723        C  0.52773686  0.15992460  0.96506428    -0.07030
C724        C  0.53601203  0.18515719  0.99323577    -0.07780
C725        C  0.50824141  0.20672768  0.00978221    -0.02330
C726        C  0.47108925  0.20284684  0.99788177     0.04490
N727        N  0.44103779  0.22152060  0.01616274     0.66990
H728        H  0.43465010  0.17656414  0.95911710     0.15890
H729        H  0.56444833  0.18764223  0.00259331     0.15600
N730        N  0.55686425  0.13652870  0.95126319     0.74700
O731        O  0.41361195  0.23305069  0.99774238    -0.38750
O732        O  0.43882506  0.22085989  0.05091638    -0.38690
O733        O  0.58915909  0.14918059  0.94713392    -0.39400
O734        O  0.55164315  0.10229326  0.94762959    -0.39460
C735        C  0.42238566  0.02865025  0.93715775    -0.11740
C736        C  0.41211276  0.05363620  0.90949811     0.05260
C737        C  0.37709448  0.05026791  0.89200766    -0.07030
C738        C  0.35372568  0.02116037  0.90286430    -0.07780
C739        C  0.36393616  0.99628295  0.93094255    -0.02330
C740        C  0.39866457  0.00057336  0.94851548     0.04490
N741        N  0.41005207  0.97762622  0.97866218     0.66990
H742        H  0.44907489  0.03151241  0.95068527     0.15890
H743        H  0.32691800  0.01821865  0.88970853     0.15600
N744        N  0.36430546  0.07605787  0.86428058     0.74700
O745        O  0.44164237  0.96252152  0.97805528    -0.38750
O746        O  0.39252769  0.97913470  0.00874176    -0.38690
O747        O  0.38048026  0.10642940  0.85917189    -0.39400
O748        O  0.33491792  0.06970541  0.84638828    -0.39460
C749        C  0.56877205  0.10808556  0.79062805    -0.11740
C750        C  0.57704055  0.07057042  0.78537308     0.05260
C751        C  0.55457911  0.04384890  0.80227990    -0.07030
C752        C  0.52628166  0.05485037  0.82604726    -0.07780
C753        C  0.51860493  0.09235161  0.83270957    -0.02330
C754        C  0.53938925  0.11940795  0.81355942     0.04490
N755        N  0.53053382  0.15807625  0.81613579     0.66990
H756        H  0.58500944  0.12869218  0.77638358     0.15890
H757        H  0.51097216  0.03353379  0.84023354     0.15600
N758        N  0.55892897  0.00540416  0.79433332     0.74700
O759        O  0.55569780  0.18195040  0.81272612    -0.38750
O760        O  0.49717135  0.16860788  0.81789483    -0.38690
O761        O  0.58287998  0.98669483  0.81157667    -0.39400
O762        O  0.53461880  0.98904791  0.77535767    -0.39460
C763        C  0.55248296  0.40423336  0.95682432    -0.11740
C764        C  0.58992735  0.40945287  0.94741500     0.05260
C765        C  0.61733589  0.38732401  0.96483241    -0.07030
C766        C  0.60669418  0.36265418  0.99271627    -0.07780
C767        C  0.56934380  0.35829118  0.00252701    -0.02330
C768        C  0.54176904  0.37809996  0.98310275     0.04490
N769        N  0.50292974  0.37084413  0.98833432     0.66990
H770        H  0.53116251  0.42058993  0.94349762     0.15890
H771        H  0.62775384  0.34648564  0.00672077     0.15600
N772        N  0.65568053  0.38872095  0.95404507     0.74700
O773        O  0.47948282  0.39657133  0.98493249    -0.38750
O774        O  0.49153332  0.33799083  0.98998835    -0.38690
O775        O  0.68095703  0.38319652  0.97757428    -0.39400
O776        O  0.66433062  0.39130153  0.92041823    -0.39460
C777        C  0.53027979  0.51733725  0.84868250    -0.11740
C778        C  0.55392845  0.48775373  0.84028984     0.05260
C779        C  0.55016673  0.46897973  0.80612652    -0.07030
C780        C  0.52174071  0.48032466  0.78190120    -0.07780
C781        C  0.49792500  0.51001436  0.79037318    -0.02330
C782        C  0.50283944  0.52905231  0.82406747     0.04490
N783        N  0.48089681  0.56068277  0.83365739     0.66990
H784        H  0.53355847  0.53187806  0.87465679     0.15890
H785        H  0.51831585  0.46602394  0.75587311     0.15600
N786        N  0.57480421  0.43931918  0.79505628     0.74700
O787        O  0.46572081  0.56237574  0.86496802    -0.38750
O788        O  0.48324463  0.58963889  0.81453339    -0.38690
O789        O  0.60390410  0.43195006  0.81302210    -0.39400
O790        O  0.56881512  0.42172839  0.76553627    -0.39460
C791        C  0.66634678  0.53504998  0.95277967    -0.11740
C792        C  0.66356068  0.52265812  0.91615044     0.05260
C793        C  0.68756813  0.53763769  0.88917106    -0.07030
C794        C  0.71230477  0.56572397  0.89932240    -0.07780
C795        C  0.71462875  0.57838057  0.93585492    -0.02330
C796        C  0.69218489  0.56194166  0.96315980     0.04490
N797        N  0.69638066  0.57081581  0.00161518     0.66990
H798        H  0.64838335  0.52349570  0.97365918     0.15890
H799        H  0.73018167  0.57759263  0.87853404     0.15600
N800        N  0.68793834  0.52417217  0.85178778     0.74700
O801        O  0.66835818  0.57152669  0.02242703    -0.38750
O802        O  0.72830078  0.57158662  0.01597516    -0.38690
O803        O  0.69514985  0.54578552  0.82551016    -0.39400
O804        O  0.68529603  0.49005392  0.84526389    -0.39460
C805        C  0.42205552  0.30286195  0.21590613    -0.11740
C806        C  0.38797124  0.31290531  0.19970807     0.05260
C807        C  0.38635575  0.31788807  0.16094112    -0.07030
C808        C  0.41880660  0.31381856  0.13992969    -0.07780
C809        C  0.45238345  0.30290331  0.15613990    -0.02330
C810        C  0.45411186  0.29692983  0.19464670     0.04490
N811        N  0.48794364  0.28578393  0.21283260     0.66990
H812        H  0.42370587  0.29936271  0.24552856     0.15890
H813        H  0.41749552  0.31757695  0.11029137     0.15600
N814        N  0.35194214  0.32511191  0.14217623     0.74700
O815        O  0.49370069  0.29482914  0.24600594    -0.38750
O816        O  0.51034385  0.26383545  0.19742906    -0.38690
O817        O  0.35125968  0.34601425  0.11436220    -0.39400
O818        O  0.32333401  0.30683253  0.15011202    -0.39460
C819        C  0.33705415  0.27629551  0.33811622    -0.11740
C820        C  0.31214348  0.27418252  0.30846256     0.05260
C821        C  0.28146601  0.25004398  0.31048175    -0.07030
C822        C  0.27663943  0.22875886  0.34251420    -0.07780
C823        C  0.30175117  0.23064562  0.37214990    -0.02330
C824        C  0.33195615  0.25535021  0.37019987     0.04490
N825        N  0.35645897  0.26103957  0.40102246     0.66990
H826        H  0.35990489  0.29557770  0.33677846     0.15890
H827        H  0.25373372  0.20956641  0.34384962     0.15600
N828        N  0.25566739  0.24602519  0.28027774     0.74700
O829        O  0.39023927  0.26820086  0.39557735    -0.38750
O830        O  0.34339193  0.26490432  0.43309631    -0.38690
O831        O  0.26599540  0.25070421  0.24736621    -0.39400
O832        O  0.22330732  0.23422781  0.28610801    -0.39460
C833        C  0.27672190  0.41520609  0.26389664    -0.11740
C834        C  0.27591162  0.38666818  0.23774242     0.05260
C835        C  0.25272094  0.38993037  0.20640802    -0.07030
C836        C  0.23136993  0.42212623  0.20186525    -0.07780
C837        C  0.23193954  0.45068262  0.22813225    -0.02330
C838        C  0.25543607  0.44741985  0.25929553     0.04490
N839        N  0.25952106  0.47703703  0.28542567     0.66990
H840        H  0.29513979  0.41287514  0.28744707     0.15890
H841        H  0.21299535  0.42430560  0.17827575     0.15600
N842        N  0.24950452  0.36055346  0.17975920     0.74700
O843        O  0.26535180  0.46998847  0.31904031    -0.38750
O844        O  0.26318357  0.50979387  0.27427096    -0.38690
O845        O  0.25118136  0.32726321  0.18981924    -0.39400
O846        O  0.24069063  0.36767331  0.14679749    -0.39460
C847        C  0.66028740  0.51654420  0.52883193    -0.11740
C848        C  0.67019324  0.55381585  0.52470332     0.05260
C849        C  0.70583405  0.56236493  0.51084116    -0.07030
C850        C  0.72906437  0.53343382  0.49897134    -0.07780
C851        C  0.71790111  0.49647298  0.50134370    -0.02330
C852        C  0.68357161  0.48770048  0.51765573     0.04490
N853        N  0.67193693  0.45016200  0.52393034     0.66990
H854        H  0.63322122  0.50957387  0.53930702     0.15890
H855        H  0.75619624  0.53969806  0.48786224     0.15600
N856        N  0.71911470  0.59974899  0.50935714     0.74700
O857        O  0.64999990  0.44296893  0.55003802    -0.38750
O858        O  0.68126367  0.42443290  0.50233327    -0.38690
O859        O  0.70966332  0.62285565  0.53373005    -0.39400
O860        O  0.74326173  0.60882480  0.48592070    -0.39460
C861        C  0.52845901  0.61352337  0.60014161    -0.11740
C862        C  0.55120336  0.58525748  0.58594724     0.05260
C863        C  0.54473361  0.54846287  0.59727098    -0.07030
C864        C  0.51665978  0.54102418  0.62265454    -0.07780
C865        C  0.49363658  0.56909117  0.63614001    -0.02330
C866        C  0.49909762  0.60577470  0.62427878     0.04490
N867        N  0.47374208  0.63480318  0.63424955     0.66990
H868        H  0.53282892  0.64174369  0.59145472     0.15890
H869        H  0.51229703  0.51278284  0.63136602     0.15600
N870        N  0.56468994  0.51798088  0.58170394     0.74700
O871        O  0.48516645  0.66752287  0.63760285    -0.38750
O872        O  0.43925408  0.62902108  0.63338410    -0.38690
O873        O  0.57877491  0.49381502  0.60255076    -0.39400
O874        O  0.56316113  0.51212682  0.54740752    -0.39460
C875        C  0.60268605  0.64956471  0.43737474    -0.11740
C876        C  0.59072993  0.65601517  0.47383582     0.05260
C877        C  0.56915221  0.68802085  0.48121731    -0.07030
C878        C  0.55766048  0.71045108  0.45189599    -0.07780
C879        C  0.56960614  0.70381320  0.41576210    -0.02330
C880        C  0.59323525  0.67355297  0.40842005     0.04490
N881        N  0.60705652  0.66606530  0.37191488     0.66990
H882        H  0.61856643  0.62502327  0.43088358     0.15890
H883        H  0.54093667  0.73470220  0.45766016     0.15600
N884        N  0.56027108  0.69931765  0.51823768     0.74700
O885        O  0.63829758  0.65077788  0.36776685    -0.38750
O886        O  0.58702181  0.67171207  0.34387694    -0.38690
O887        O  0.58474815  0.69824100  0.54317270    -0.39400
O888        O  0.52955538  0.71469958  0.52504195    -0.39460
C889        C  0.89125827  0.50661549  0.45862697    -0.11740
C890        C  0.86730923  0.49285918  0.43137593     0.05260
C891        C  0.87011241  0.50645654  0.39495692    -0.07030
C892        C  0.89667603  0.53325639  0.38672458    -0.07780
C893        C  0.92013180  0.54745011  0.41415895    -0.02330
C894        C  0.91772722  0.53355382  0.45053671     0.04490
N895        N  0.94241409  0.54564136  0.47929941     0.66990
H896        H  0.88957008  0.49612644  0.48654223     0.15890
H897        H  0.89826909  0.54388041  0.35884043     0.15600
N898        N  0.84667149  0.49328770  0.36588930     0.74700
O899        O  0.93082496  0.54883038  0.51200196    -0.38750
O900        O  0.97659869  0.54940806  0.47296804    -0.38690
O901        O  0.81307414  0.50312345  0.36494164    -0.39400
O902        O  0.86112881  0.47939913  0.33735513    -0.39460
C903        C  0.06090632  0.60507516  0.34398532    -0.11740
C904        C  0.02374206  0.59586989  0.33651839     0.05260
C905        C  0.01509859  0.57819112  0.30264993    -0.07030
C906        C  0.04397174  0.56785373  0.27885375    -0.07780
C907        C  0.08101859  0.57579324  0.28724067    -0.02330
C908        C  0.08970859  0.59593841  0.31955399     0.04490
N909        N  0.12685889  0.60833078  0.32776735     0.66990
H910        H  0.06793230  0.61835976  0.36982714     0.15890
H911        H  0.03748931  0.55365288  0.25329821     0.15600
N912        N  0.97741751  0.57112133  0.29164371     0.74700
O913        O  0.13174287  0.63610577  0.34827722    -0.38750
O914        O  0.15496821  0.59167243  0.31532388    -0.38690
O915        O  0.95235467  0.59478073  0.29765656    -0.39400
O916        O  0.96975324  0.54293563  0.27260729    -0.39460
C917        C  0.00102246  0.65079349  0.47897837    -0.11740
C918        C  0.98154935  0.66404151  0.44824661     0.05260
C919        C  0.97225092  0.70188035  0.44593503    -0.07030
C920        C  0.98292574  0.72536326  0.47505751    -0.07780
C921        C  0.00279861  0.71210635  0.50587081    -0.02330
C922        C  0.01231051  0.67429675  0.50736330     0.04490
N923        N  0.03453733  0.65932152  0.53655665     0.66990
H924        H  0.00872912  0.62187837  0.48026550     0.15890
H925        H  0.97560454  0.75432811  0.47366271     0.15600
N926        N  0.95212310  0.71688898  0.41488968     0.74700
O927        O  0.02365158  0.63094451  0.55343242    -0.38750
O928        O  0.06800155  0.66898078  0.53959104    -0.38690
O929        O  0.93174927  0.69666463  0.39506358    -0.39400
O930        O  0.95278764  0.75111549  0.40849774    -0.39460
C931        C  0.41538862  0.05815794  0.53158740    -0.11740
C932        C  0.41289442  0.02301443  0.51472432     0.05260
C933        C  0.38429445  0.01730291  0.48840673    -0.07030
C934        C  0.36296227  0.04733677  0.47643668    -0.07780
C935        C  0.36531781  0.08179490  0.49362625    -0.02330
C936        C  0.39091151  0.08703825  0.52259181     0.04490
N937        N  0.39338495  0.12144520  0.54241194     0.66990
H938        H  0.43720263  0.06408209  0.55112333     0.15890
H939        H  0.34275875  0.04318983  0.45500899     0.15600
N940        N  0.37456195  0.98109318  0.47553525     0.74700
O941        O  0.40384748  0.12173292  0.57568029    -0.38750
O942        O  0.38735417  0.15178278  0.52640971    -0.38690
O943        O  0.37160809  0.95494163  0.49826141    -0.39400
O944        O  0.36360475  0.97638296  0.44275959    -0.39460
C945        C  0.52898572  0.91346895  0.46133202    -0.11740
C946        C  0.49215185  0.91568957  0.47361936     0.05260
C947        C  0.46538054  0.89152535  0.45852823    -0.07030
C948        C  0.47585548  0.86689213  0.43053823    -0.07780
C949        C  0.51265028  0.86468344  0.41818373    -0.02330
C950        C  0.53980237  0.88765260  0.43446686     0.04490
N951        N  0.57852615  0.88375540  0.42585593     0.66990
H952        H  0.54966539  0.93146724  0.47337777     0.15890
H953        H  0.45519816  0.84860934  0.41887777     0.15600
N954        N  0.42806166  0.89038157  0.47239330     0.74700
O955        O  0.59920740  0.91177621  0.42566896    -0.38750
O956        O  0.59327115  0.85211621  0.42495426    -0.38690
O957        O  0.40146208  0.88302626  0.45093303    -0.39400
O958        O  0.42218638  0.89152004  0.50670300    -0.39460
C959        C  0.53749182  0.01652356  0.58600129    -0.11740
C960        C  0.52006692  0.98229429  0.59035662     0.05260
C961        C  0.52992391  0.95929298  0.62046961    -0.07030
C962        C  0.55838781  0.97125393  0.64437746    -0.07780
C963        C  0.57635052  0.00528031  0.63936658    -0.02330
C964        C  0.56482224  0.02864494  0.61042566     0.04490
N965        N  0.57922897  0.06528354  0.60624989     0.66990
H966        H  0.52929825  0.03434096  0.56338416     0.15890
H967        H  0.56688375  0.95378169  0.66709278     0.15600
N968        N  0.51138653  0.92472451  0.62790440     0.74700
O969        O  0.58590674  0.07769876  0.57444438    -0.38750
O970        O  0.57879016  0.08731701  0.63327193    -0.38690
O971        O  0.48506264  0.91343219  0.60792332    -0.39400
O972        O  0.51998905  0.90606472  0.65605999    -0.39460
loop_ 
_geom_bond_atom_site_label_1 
_geom_bond_atom_site_label_2 
_geom_bond_distance 
_geom_bond_site_symmetry_2 
_ccdc_geom_bond_type 
C1            C2   1.398       .  A
C1            C6   1.401       .  A
C1          C960   1.475       .  S
C2            C3   1.400       .  A
C2            H7   1.084       .  S
C3            C4   1.404       .  A
C3          C946   1.483       .  S
C4            C5   1.412       .  A
C4            H8   1.081       .  S
C5            C6   1.409       .  A
C5          C932   1.505   1_565  S
C6            H9   1.081   1_565  S
C10          C11   1.402       .  A
C10          C15   1.399       .  A
C10         C893   1.480       .  S
C11          C12   1.408       .  A
C11          H16   1.083       .  S
C12          C13   1.409       .  A
C12         C904   1.492   1_655  S
C13          C14   1.401       .  A
C13          H17   1.083   1_655  S
C14          C15   1.396       .  A
C14         C918   1.472       .  S
C15          H18   1.084       .  S
C19          C20   1.403       .  A
C19          C24   1.402       .  A
C19         C862   1.491       .  S
C20          C21   1.407       .  A
C20          H25   1.083       .  S
C21          C22   1.408       .  A
C21         C876   1.496       .  S
C22          C23   1.406       .  A
C22          H26   1.081       .  S
C23          C24   1.404       .  A
C23         C848   1.491       .  S
C24          H27   1.083       .  S
C28          C29   1.409       .  A
C28          C33   1.408       .  A
C28         C806   1.495       .  S
C29          C30   1.405       .  A
C29          H34   1.083       .  S
C30          C31   1.401       .  A
C30         C834   1.480       .  S
C31          C32   1.401       .  A
C31          H35   1.084       .  S
C32          C33   1.402       .  A
C32         C820   1.478       .  S
C33          H36   1.084       .  S
C37          C38   1.407       .  A
C37          C42   1.402       .  A
C37         C792   1.487       .  S
C38          C39   1.408       .  A
C38          H43   1.083       .  S
C39          C40   1.407       .  A
C39         C764   1.492       .  S
C40          C41   1.400       .  A
C40          H44   1.083       .  S
C41          C42   1.399       .  A
C41         C778   1.474       .  S
C42          H45   1.084       .  S
C46          C47   1.399       .  A
C46          C51   1.398       .  A
C46         C736   1.475       .  S
C47          C48   1.408       .  A
C47          H52   1.083       .  S
C48          C49   1.408       .  A
C48         C753   1.491       .  S
C49          C50   1.405       .  A
C49          H53   1.082       .  S
C50          C51   1.401       .  A
C50         C722   1.486       .  S
C51          H54   1.084       .  S
In55         O57   2.250       .  S
In55         O58   2.246       .  S
In55         O66   2.243       .  S
In55         O60   2.259       .  S
In55         O62   2.238       .  S
In55         O63   2.244       .  S
In55         O64   2.242       .  S
In55         O67   2.235       .  S
C56         C767   1.478       .  S
C56          O62   1.263       .  A
C56          O64   1.261       .  A
O57          C65   1.260       .  A
O58          C65   1.259       .  A
C59         C809   1.473       .  S
C59          O66   1.259       .  A
C59          O60   1.261       .  A
C61         C725   1.477       .  S
C61          O63   1.261       .  A
C61          O67   1.259       .  A
C65         C711   1.475       .  S
C68          C69   1.401       .  A
C68          C73   1.403       .  A
C68         C708   1.476       .  S
C69          C70   1.400       .  A
C69          H74   1.084       .  S
C70          C71   1.402       .  A
C70         C694   1.474       .  S
C71          C72   1.406       .  A
C71          H75   1.084       .  S
C72          C73   1.408       .  A
C72         C680   1.489       .  S
C73          H76   1.084       .  S
C77          C78   1.406       .  A
C77          C82   1.402       .  A
C77         C638   1.484       .  S
C78          C79   1.408       .  A
C78          H83   1.083       .  S
C79          C80   1.407       .  A
C79         C669   1.492       .  S
C80          C81   1.403       .  A
C80          H84   1.084       .  S
C81          C82   1.401       .  A
C81         C652   1.477       .  S
C82          H85   1.084       .  S
In86         O88   2.255       .  S
In86         O89   2.244       .  S
In86         O97   2.242   1_556  S
In86         O91   2.249   1_556  S
In86         O93   2.239       .  S
In86         O94   2.244       .  S
In86         O95   2.242       .  S
In86         O98   2.237   1_556  S
C87         C795   1.478       .  S
C87          O93   1.262       .  A
C87          O95   1.261       .  A
O88          C96   1.261       .  A
O89          C96   1.258       .  A
C90         C641   1.482       .  S
C90          O97   1.259       .  A
C90          O91   1.261       .  A
C92         C610   1.477       .  S
C92          O94   1.261       .  A
C92          O98   1.259   1_556  A
C96         C624   1.488       .  S
C99         C100   1.405       .  A
C99         C104   1.404       .  A
C99         C596   1.487       .  S
C100        C101   1.407       .  A
C100        H105   1.084       .  S
C101        C102   1.406       .  A
C101        C627   1.489       .  S
C102        C103   1.403       .  A
C102        H106   1.084       .  S
C103        C104   1.401       .  A
C103        C582   1.479       .  S
C104        H107   1.084       .  S
C108        C109   1.408       .  A
C108        C113   1.409       .  A
C108        C543   1.499       .  S
C109        C110   1.404       .  A
C109        H114   1.083       .  S
C110        C111   1.404       .  A
C110        C568   1.489       .  S
C111        C112   1.405       .  A
C111        H115   1.084       .  S
C112        C113   1.406       .  A
C112        C554   1.489       .  S
C113        H116   1.082       .  S
C117        C118   1.406       .  A
C117        C122   1.406       .  A
C117        C526   1.488       .  S
C118        C119   1.405       .  A
C118        H123   1.084       .  S
C119        C120   1.404       .  A
C119        C498   1.485       .  S
C120        C121   1.402       .  A
C120        H124   1.084       .  S
C121        C122   1.402       .  A
C121        C512   1.477       .  S
C122        H125   1.084       .  S
C126        C127   1.400       .  A
C126        C131   1.400       .  A
C126        C473   1.472   1_565  S
C127        C128   1.402       .  A
C127        H132   1.084   1_565  S
C128        C129   1.402       .  A
C128        C456   1.474       .  S
C129        C130   1.402       .  A
C129        H133   1.084       .  S
C130        C131   1.401       .  A
C130        C484   1.476       .  S
C131        H134   1.084       .  S
C135        C136   1.402       .  A
C135        C140   1.401       .  A
C135        C442   1.474       .  S
C136        C137   1.406       .  A
C136        H141   1.084       .  S
C137        C138   1.408       .  A
C137        C428   1.490       .  S
C138        C139   1.404       .  A
C138        H142   1.084       .  S
C139        C140   1.401       .  A
C139        C417   1.479       .  S
C140        H143   1.084       .  S
C144        C145   1.400       .  A
C144        C149   1.401       .  A
C144        C375   1.477       .  S
C145        C146   1.404       .  A
C145        H150   1.084       .  S
C146        C147   1.407       .  A
C146        C400   1.488       .  S
C147        C148   1.410       .  A
C147        H151   1.082       .  S
C148        C149   1.409       .  A
C148        C389   1.501       .  S
C149        H152   1.083       .  S
C153        C154   1.406       .  A
C153        C158   1.405       .  A
C153        C358   1.489   1_655  S
C154        C155   1.402       .  A
C154        H159   1.084       .  S
C155        C156   1.400       .  A
C155        C613   1.471       .  S
C156        C157   1.400       .  A
C156        H160   1.084   1_554  S
C157        C158   1.401       .  A
C157        C344   1.475   1_554  S
C158        H161   1.084   1_655  S
In162       O164   2.251       .  S
In162       O165   2.252       .  S
In162       O173   2.250       .  S
In162       O167   2.256       .  S
In162       O169   2.241       .  S
In162       O170   2.238       .  S
In162       O171   2.240       .  S
In162       O174   2.244       .  S
C163        C907   1.467       .  S
C163        O169   1.262       .  A
C163        O171   1.260       .  A
O164        C172   1.260       .  A
O165        C172   1.260       .  A
C166        C837   1.482       .  S
C166        O173   1.259       .  A
C166        O167   1.260       .  A
C168        C361   1.469       .  S
C168        O170   1.262       .  A
C168        O174   1.260       .  A
C172        C386   1.488       .  S
In175       O177   2.247   1_455  S
In175       O178   2.255       .  S
In175       O186   2.239       .  S
In175       O180   2.254       .  S
In175       O182   2.235       .  S
In175       O183   2.240       .  S
In175       O184   2.232       .  S
In175       O187   2.232       .  S
C176        C347   1.480       .  S
C176        O182   1.265       .  A
C176        O184   1.262       .  A
O177        C185   1.257       .  A
O178        C185   1.260   1_455  A
C179        C540   1.486       .  S
C179        O186   1.259       .  A
C179        O180   1.262       .  A
C181        C333   1.468       .  S
C181        O183   1.264       .  A
C181        O187   1.259       .  A
C185        C515   1.474       .  S
C188        C189   1.403       .  A
C188        C193   1.405       .  A
C188        C305   1.483       .  S
C189        C190   1.402       .  A
C189        H194   1.084       .  S
C190        C191   1.401   1_554  A
C190        C330   1.481   1_554  S
C191        C192   1.404   1_556  A
C191        H195   1.084       .  S
C192        C193   1.403       .  A
C192        C316   1.486       .  S
C193        H196   1.084       .  S
In197       O199   2.254       .  S
In197       O200   2.247       .  S
In197       O208   2.256   1_556  S
In197       O202   2.243   1_556  S
In197       O204   2.241       .  S
In197       O205   2.230       .  S
In197       O206   2.245       .  S
In197       O209   2.250   1_556  S
C198        C739   1.484       .  S
C198        O204   1.260       .  A
C198        O206   1.259       .  A
O199        C207   1.259       .  A
O200        C207   1.259       .  A
C201        C372   1.473       .  S
C201        O208   1.260       .  A
C201        O202   1.259       .  A
C203        C319   1.476       .  S
C203        O205   1.261       .  A
C203        O209   1.261   1_556  A
C207        C431   1.486       .  S
In210       O212   2.241   1_545  S
In210       O213   2.253       .  S
In210       O221   2.246       .  S
In210       O215   2.252       .  S
In210       O217   2.237       .  S
In210       O218   2.245       .  S
In210       O219   2.237       .  S
In210       O222   2.236       .  S
C211        C459   1.483   1_545  S
C211        O217   1.265       .  A
C211        O219   1.259       .  A
O212        C220   1.258       .  A
O213        C220   1.262   1_545  A
C214        C683   1.477       .  S
C214        O221   1.259       .  A
C214        O215   1.259       .  A
C216        C302   1.470       .  S
C216        O218   1.263       .  A
C216        O222   1.258       .  A
C220        C655   1.472       .  S
In223       O225   2.245       .  S
In223       O226   2.247       .  S
In223       O234   2.249   1_455  S
In223       O228   2.243   1_455  S
In223       O230   2.243       .  S
In223       O231   2.240       .  S
In223       O232   2.225       .  S
In223       O235   2.235       .  S
C224        C487   1.477       .  S
C224        O230   1.264       .  A
C224        O232   1.257       .  A
O225        C233   1.259       .  A
O226        C233   1.260       .  A
C227        C599   1.476       .  S
C227        O234   1.261       .  A
C227        O228   1.260       .  A
C229        C921   1.484       .  S
C229        O231   1.263       .  A
C229        O235   1.260       .  A
C233        C414   1.468       .  S
In236       O238   2.236       .  S
In236       O239   2.253       .  S
In236       O247   2.245   1_545  S
In236       O241   2.253       .  S
In236       O243   2.230       .  S
In236       O244   2.236       .  S
In236       O245   2.244       .  S
In236       O248   2.235       .  S
C237        C750   1.475       .  S
C237        O243   1.261       .  A
C237        O245   1.260       .  A
O238        C246   1.260       .  A
O239        C246   1.263       .  A
C240        C585   1.470       .  S
C240        O247   1.258       .  A
C240        O241   1.259   1_565  A
C242        C963   1.479       .  S
C242        O244   1.264       .  A
C242        O248   1.260       .  A
C246        C501   1.483       .  S
In249       O251   2.253       .  S
In249       O252   2.251       .  S
In249       O260   2.245       .  S
In249       O254   2.248       .  S
In249       O256   2.251       .  S
In249       O257   2.242       .  S
In249       O258   2.240       .  S
In249       O261   2.252       .  S
C250        C470   1.480       .  S
C250        O256   1.262       .  A
C250        O258   1.259       .  A
O251        C259   1.259       .  A
O252        C259   1.259       .  A
C253        C557   1.483       .  S
C253        O260   1.262       .  A
C253        O254   1.262       .  A
C255        C935   1.470       .  S
C255        O257   1.259       .  A
C255        O261   1.260       .  A
C259        C823   1.481       .  S
In262       O264   2.246       .  S
In262       O265   2.257       .  S
In262       O273   2.247       .  S
In262       O267   2.251       .  S
In262       O269   2.245       .  S
In262       O270   2.231       .  S
In262       O271   2.241       .  S
In262       O274   2.242       .  S
C263        C781   1.484       .  S
C263        O269   1.260       .  A
C263        O271   1.258       .  A
O264        C272   1.258       .  A
O265        C272   1.261       .  A
C266        C445   1.476       .  S
C266        O273   1.259       .  A
C266        O267   1.260       .  A
C268        C865   1.473       .  S
C268        O270   1.263       .  A
C268        O274   1.262       .  A
C272        C571   1.487       .  S
In275       O277   2.240       .  S
In275       O278   2.252       .  S
In275       O286   2.241       .  S
In275       O280   2.254       .  S
In275       O282   2.241       .  S
In275       O283   2.232       .  S
In275       O284   2.238       .  S
In275       O287   2.231       .  S
C276        C851   1.465       .  S
C276        O282   1.262       .  A
C276        O284   1.258       .  A
O277        C285   1.258       .  A
O278        C285   1.260       .  A
C279        C697   1.475       .  S
C279        O286   1.259       .  A
C279        O280   1.261       .  A
C281        C890   1.478       .  S
C281        O283   1.264       .  A
C281        O287   1.260       .  A
C285        C529   1.468       .  S
In288       O290   2.240       .  S
In288       O291   2.243       .  S
In288       O299   2.256       .  S
In288       O293   2.244       .  S
In288       O295   2.245       .  S
In288       O296   2.257       .  S
In288       O297   2.261       .  S
In288       O300   2.234       .  S
C289        C879   1.471       .  S
C289        O295   1.256       .  A
C289        O297   1.256       .  A
O290        C298   1.263       .  A
O291        C298   1.263       .  A
C292        C403   1.472       .  S
C292        O299   1.261       .  A
C292        O293   1.260       .  A
C294        C949   1.478       .  S
C294        O296   1.261       .  A
C294        O300   1.257       .  A
C298        C666   1.478       .  S
C301        C302   1.400       .  A
C301        C306   1.402   1_655  A
C301        H308   1.084       .  S
C302        C303   1.417   1_655  A
C303        C304   1.403       .  A
C303        N310   1.442       .  S
C304        C305   1.403       .  A
C304        H309   1.084       .  S
C305        C306   1.416       .  A
C306        N307   1.438   1_455  S
N307        O311   1.262   1_655  A
N307        O312   1.263       .  A
N310        O313   1.263       .  A
N310        O314   1.261       .  A
C315        C316   1.404   1_556  A
C315        C320   1.397       .  A
C315        H322   1.083       .  S
C316        C317   1.418       .  A
C317        C318   1.407       .  A
C317        N324   1.439       .  S
C318        C319   1.404   1_544  A
C318        H323   1.084   1_545  S
C319        C320   1.413   1_565  A
C320        N321   1.438       .  S
N321        O325   1.263       .  A
N321        O326   1.263       .  A
N324        O327   1.263       .  A
N324        O328   1.263       .  A
C329        C330   1.403       .  A
C329        C334   1.404       .  A
C329        H336   1.084   1_556  S
C330        C331   1.416       .  A
C331        C332   1.399       .  A
C331        N338   1.437       .  S
C332        C333   1.398       .  A
C332        H337   1.084       .  S
C333        C334   1.416       .  A
C334        N335   1.440       .  S
N335        O339   1.263       .  A
N335        O340   1.261       .  A
N338        O341   1.263       .  A
N338        O342   1.263       .  A
C343        C344   1.402   1_455  A
C343        C348   1.396       .  A
C343        H350   1.084       .  S
C344        C345   1.420       .  A
C345        C346   1.410       .  A
C345        N352   1.449       .  S
C346        C347   1.407   1_655  A
C346        H351   1.083       .  S
C347        C348   1.412       .  A
C348        N349   1.436       .  S
N349        O353   1.262       .  A
N349        O354   1.263       .  A
N352        O355   1.262   1_556  A
N352        O356   1.263       .  A
C357        C358   1.407       .  A
C357        C362   1.404       .  A
C357        H364   1.083       .  S
C358        C359   1.416       .  A
C359        C360   1.405       .  A
C359        N366   1.440   1_455  S
C360        C361   1.403       .  A
C360        H365   1.084       .  S
C361        C362   1.417       .  A
C362        N363   1.447       .  S
N363        O367   1.263       .  A
N363        O368   1.261       .  A
N366        O369   1.263       .  A
N366        O370   1.263       .  A
C371        C372   1.404       .  A
C371        C376   1.409       .  A
C371        H378   1.084       .  S
C372        C373   1.416       .  A
C373        C374   1.404       .  A
C373        N380   1.443       .  S
C374        C375   1.402       .  A
C374        H379   1.084       .  S
C375        C376   1.417       .  A
C376        N377   1.445       .  S
N377        O381   1.263       .  A
N377        O382   1.262       .  A
N380        O383   1.261   1_554  A
N380        O384   1.263       .  A
C385        C386   1.404       .  A
C385        C390   1.405       .  A
C385        H392   1.084       .  S
C386        C387   1.414       .  A
C387        C388   1.404       .  A
C387        N394   1.436       .  S
C388        C389   1.409       .  A
C388        H393   1.082       .  S
C389        C390   1.421       .  A
C390        N391   1.437       .  S
N391        O395   1.262       .  A
N391        O396   1.263       .  A
N394        O397   1.263       .  A
N394        O398   1.262       .  A
C399        C400   1.405       .  A
C399        C404   1.406       .  A
C399        H406   1.083       .  S
C400        C401   1.417       .  A
C401        C402   1.406       .  A
C401        N408   1.440       .  S
C402        C403   1.402       .  A
C402        H407   1.084       .  S
C403        C404   1.417       .  A
C404        N405   1.446       .  S
N405        O409   1.263       .  A
N405        O410   1.262       .  A
N408        O411   1.263       .  A
N408        O412   1.263       .  A
C413        C414   1.399       .  A
C413        C418   1.402       .  A
C413        H420   1.084       .  S
C414        C415   1.416       .  A
C415        C416   1.407       .  A
C415        N422   1.444       .  S
C416        C417   1.403       .  A
C416        H421   1.084       .  S
C417        C418   1.414       .  A
C418        N419   1.439       .  S
N419        O423   1.263       .  A
N419        O424   1.262       .  A
N422        O425   1.263       .  A
N422        O426   1.263       .  A
C427        C428   1.405       .  A
C427        C432   1.404       .  A
C427        H434   1.084       .  S
C428        C429   1.415       .  A
C429        C430   1.403       .  A
C429        N436   1.437       .  S
C430        C431   1.405       .  A
C430        H435   1.084       .  S
C431        C432   1.416       .  A
C432        N433   1.435       .  S
N433        O437   1.263       .  A
N433        O438   1.263       .  A
N436        O439   1.262       .  A
N436        O440   1.263       .  A
C441        C442   1.400       .  A
C441        C446   1.403       .  A
C441        H448   1.084       .  S
C442        C443   1.416       .  A
C443        C444   1.405       .  A
C443        N450   1.442       .  S
C444        C445   1.402       .  A
C444        H449   1.084       .  S
C445        C446   1.415       .  A
C446        N447   1.439       .  S
N447        O451   1.263       .  A
N447        O452   1.263       .  A
N450        O453   1.262       .  A
N450        O454   1.263       .  A
C455        C456   1.400       .  A
C455        C460   1.404       .  A
C455        H462   1.084       .  S
C456        C457   1.413       .  A
C457        C458   1.400   1_455  A
C457        N464   1.439   1_455  S
C458        C459   1.404       .  A
C458        H463   1.084   1_565  S
C459        C460   1.419   1_655  A
C460        N461   1.436       .  S
N461        O465   1.262       .  A
N461        O466   1.262       .  A
N464        O467   1.262   1_665  A
N464        O468   1.263       .  A
C469        C470   1.402       .  A
C469        C474   1.403       .  A
C469        H476   1.084       .  S
C470        C471   1.415       .  A
C471        C472   1.400       .  A
C471        N478   1.432       .  S
C472        C473   1.398       .  A
C472        H477   1.084   1_545  S
C473        C474   1.415       .  A
C474        N475   1.439       .  S
N475        O479   1.263       .  A
N475        O480   1.261       .  A
N478        O481   1.261       .  A
N478        O482   1.262       .  A
C483        C484   1.401       .  A
C483        C488   1.400       .  A
C483        H490   1.084       .  S
C484        C485   1.415       .  A
C485        C486   1.401       .  A
C485        N492   1.439       .  S
C486        C487   1.402       .  A
C486        H491   1.084       .  S
C487        C488   1.416       .  A
C488        N489   1.434       .  S
N489        O493   1.262       .  A
N489        O494   1.262       .  A
N492        O495   1.262       .  A
N492        O496   1.263       .  A
C497        C498   1.403       .  A
C497        C502   1.403       .  A
C497        H504   1.084       .  S
C498        C499   1.416       .  A
C499        C500   1.405       .  A
C499        N506   1.440       .  S
C500        C501   1.404       .  A
C500        H505   1.083       .  S
C501        C502   1.416       .  A
C502        N503   1.437       .  S
N503        O507   1.263       .  A
N503        O508   1.263       .  A
N506        O509   1.263       .  A
N506        O510   1.263       .  A
C511        C512   1.403       .  A
C511        C516   1.405       .  A
C511        H518   1.084       .  S
C512        C513   1.418       .  A
C513        C514   1.406       .  A
C513        N520   1.444       .  S
C514        C515   1.402       .  A
C514        H519   1.084       .  S
C515        C516   1.413       .  A
C516        N517   1.442       .  S
N517        O521   1.263       .  A
N517        O522   1.263   1_655  A
N520        O523   1.262       .  A
N520        O524   1.263       .  A
C525        C526   1.407       .  A
C525        C530   1.407       .  A
C525        H532   1.083       .  S
C526        C527   1.417       .  A
C527        C528   1.403       .  A
C527        N534   1.439       .  S
C528        C529   1.400       .  A
C528        H533   1.084       .  S
C529        C530   1.415       .  A
C530        N531   1.445       .  S
N531        O535   1.263       .  A
N531        O536   1.262       .  A
N534        O537   1.263       .  A
N534        O538   1.263       .  A
C539        C540   1.405       .  A
C539        C544   1.404       .  A
C539        H546   1.083       .  S
C540        C541   1.414       .  A
C541        C542   1.403       .  A
C541        N548   1.436       .  S
C542        C543   1.409       .  A
C542        H547   1.082       .  S
C543        C544   1.419       .  A
C544        N545   1.437       .  S
N545        O549   1.263       .  A
N545        O550   1.263       .  A
N548        O551   1.263       .  A
N548        O552   1.262       .  A
C553        C554   1.405       .  A
C553        C558   1.405       .  A
C553        H560   1.084       .  S
C554        C555   1.417       .  A
C555        C556   1.405       .  A
C555        N562   1.440       .  S
C556        C557   1.404       .  A
C556        H561   1.084       .  S
C557        C558   1.415       .  A
C558        N559   1.437       .  S
N559        O563   1.263       .  A
N559        O564   1.263       .  A
N562        O565   1.263       .  A
N562        O566   1.263       .  A
C567        C568   1.404       .  A
C567        C572   1.403       .  A
C567        H574   1.084       .  S
C568        C569   1.417       .  A
C569        C570   1.405       .  A
C569        N576   1.438       .  S
C570        C571   1.405       .  A
C570        H575   1.083       .  S
C571        C572   1.417       .  A
C572        N573   1.435       .  S
N573        O577   1.263       .  A
N573        O578   1.263       .  A
N576        O579   1.263       .  A
N576        O580   1.263       .  A
C581        C582   1.404       .  A
C581        C586   1.406       .  A
C581        H588   1.084       .  S
C582        C583   1.414       .  A
C583        C584   1.403       .  A
C583        N590   1.440       .  S
C584        C585   1.401       .  A
C584        H589   1.084       .  S
C585        C586   1.415       .  A
C586        N587   1.443       .  S
N587        O591   1.263       .  A
N587        O592   1.263   1_565  A
N590        O593   1.263       .  A
N590        O594   1.262       .  A
C595        C596   1.405       .  A
C595        C600   1.404       .  A
C595        H602   1.084       .  S
C596        C597   1.417       .  A
C597        C598   1.404       .  A
C597        N604   1.439       .  S
C598        C599   1.402       .  A
C598        H603   1.084       .  S
C599        C600   1.414       .  A
C600        N601   1.437       .  S
N601        O605   1.263       .  A
N601        O606   1.261       .  A
N604        O607   1.263       .  A
N604        O608   1.263       .  A
C609        C610   1.405   1_554  A
C609        C614   1.406       .  A
C609        H616   1.083       .  S
C610        C611   1.413       .  A
C611        C612   1.401       .  A
C611        N618   1.438       .  S
C612        C613   1.401   1_556  A
C612        H617   1.084       .  S
C613        C614   1.417       .  A
C614        N615   1.447       .  S
N615        O619   1.263       .  A
N615        O620   1.262       .  A
N618        O621   1.263       .  A
N618        O622   1.263       .  A
C623        C624   1.407       .  A
C623        C628   1.406       .  A
C623        H630   1.083       .  S
C624        C625   1.416       .  A
C625        C626   1.401       .  A
C625        N632   1.433       .  S
C626        C627   1.404       .  A
C626        H631   1.084       .  S
C627        C628   1.416       .  A
C628        N629   1.438       .  S
N629        O633   1.262       .  A
N629        O634   1.263       .  A
N632        O635   1.262       .  A
N632        O636   1.262       .  A
C637        C638   1.403       .  A
C637        C642   1.403       .  A
C637        H644   1.084       .  S
C638        C639   1.413       .  A
C639        C640   1.402       .  A
C639        N646   1.436       .  S
C640        C641   1.404       .  A
C640        H645   1.083       .  S
C641        C642   1.417       .  A
C642        N643   1.437       .  S
N643        O647   1.263       .  A
N643        O648   1.263       .  A
N646        O649   1.262       .  A
N646        O650   1.263       .  A
C651        C652   1.403       .  A
C651        C656   1.404       .  A
C651        H658   1.084       .  S
C652        C653   1.420       .  A
C653        C654   1.407       .  A
C653        N660   1.447       .  S
C654        C655   1.402       .  A
C654        H659   1.084       .  S
C655        C656   1.412       .  A
C656        N657   1.442       .  S
N657        O661   1.263       .  A
N657        O662   1.263   1_565  A
N660        O663   1.262       .  A
N660        O664   1.263       .  A
C665        C666   1.401       .  A
C665        C670   1.402       .  A
C665        H672   1.084       .  S
C666        C667   1.415       .  A
C667        C668   1.406       .  A
C667        N674   1.439       .  S
C668        C669   1.406       .  A
C668        H673   1.083       .  S
C669        C670   1.416       .  A
C670        N671   1.435       .  S
N671        O675   1.263       .  A
N671        O676   1.262       .  A
N674        O677   1.263       .  A
N674        O678   1.263       .  A
C679        C680   1.406       .  A
C679        C684   1.404       .  A
C679        H686   1.084       .  S
C680        C681   1.417       .  A
C681        C682   1.404       .  A
C681        N688   1.438       .  S
C682        C683   1.402       .  A
C682        H687   1.084       .  S
C683        C684   1.414       .  A
C684        N685   1.436       .  S
N685        O689   1.263       .  A
N685        O690   1.262       .  A
N688        O691   1.263       .  A
N688        O692   1.263       .  A
C693        C694   1.401       .  A
C693        C698   1.403       .  A
C693        H700   1.084       .  S
C694        C695   1.417       .  A
C695        C696   1.406       .  A
C695        N702   1.443       .  S
C696        C697   1.402       .  A
C696        H701   1.084       .  S
C697        C698   1.414       .  A
C698        N699   1.440       .  S
N699        O703   1.263       .  A
N699        O704   1.262       .  A
N702        O705   1.262       .  A
N702        O706   1.263       .  A
C707        C708   1.402       .  A
C707        C712   1.405       .  A
C707        H714   1.084       .  S
C708        C709   1.417       .  A
C709        C710   1.405       .  A
C709        N716   1.443       .  S
C710        C711   1.402       .  A
C710        H715   1.084       .  S
C711        C712   1.415       .  A
C712        N713   1.441       .  S
N713        O717   1.263       .  A
N713        O718   1.263       .  A
N716        O719   1.262       .  A
N716        O720   1.263       .  A
C721        C722   1.405       .  A
C721        C726   1.401       .  A
C721        H728   1.083       .  S
C722        C723   1.417       .  A
C723        C724   1.402       .  A
C723        N730   1.438       .  S
C724        C725   1.403   1_556  A
C724        H729   1.084   1_556  S
C725        C726   1.414   1_554  A
C726        N727   1.438   1_556  S
N727        O731   1.263   1_554  A
N727        O732   1.263       .  A
N730        O733   1.263       .  A
N730        O734   1.263       .  A
C735        C736   1.401       .  A
C735        C740   1.395       .  A
C735        H742   1.085       .  S
C736        C737   1.418       .  A
C737        C738   1.410       .  A
C737        N744   1.448       .  S
C738        C739   1.409   1_545  A
C738        H743   1.083       .  S
C739        C740   1.413   1_565  A
C740        N741   1.433   1_545  S
N741        O745   1.262       .  A
N741        O746   1.262   1_556  A
N744        O747   1.262       .  A
N744        O748   1.263       .  A
C749        C750   1.404       .  A
C749        C754   1.408       .  A
C749        H756   1.083       .  S
C750        C751   1.407       .  A
C751        C752   1.394       .  A
C751        N758   1.431       .  S
C752        C753   1.407       .  A
C752        H757   1.083       .  S
C753        C754   1.420       .  A
C754        N755   1.439       .  S
N755        O759   1.263       .  A
N755        O760   1.263       .  A
N758        O761   1.262   1_545  A
N758        O762   1.262   1_545  A
C763        C764   1.407       .  A
C763        C768   1.401       .  A
C763        H770   1.083       .  S
C764        C765   1.419       .  A
C765        C766   1.406       .  A
C765        N772   1.439       .  S
C766        C767   1.403   1_556  A
C766        H771   1.084   1_556  S
C767        C768   1.412   1_554  A
C768        N769   1.439       .  S
N769        O773   1.263       .  A
N769        O774   1.263       .  A
N772        O775   1.263       .  A
N772        O776   1.263       .  A
C777        C778   1.401       .  A
C777        C782   1.397       .  A
C777        H784   1.085       .  S
C778        C779   1.418       .  A
C779        C780   1.409       .  A
C779        N786   1.449       .  S
C780        C781   1.408       .  A
C780        H785   1.083       .  S
C781        C782   1.413       .  A
C782        N783   1.433       .  S
N783        O787   1.262       .  A
N783        O788   1.262       .  A
N786        O789   1.262       .  A
N786        O790   1.263       .  A
C791        C792   1.404       .  A
C791        C796   1.401       .  A
C791        H798   1.083       .  S
C792        C793   1.418       .  A
C793        C794   1.404       .  A
C793        N800   1.439       .  S
C794        C795   1.403       .  A
C794        H799   1.084       .  S
C795        C796   1.414       .  A
C796        N797   1.438   1_556  S
N797        O801   1.263       .  A
N797        O802   1.263       .  A
N800        O803   1.263       .  A
N800        O804   1.263       .  A
C805        C806   1.408       .  A
C805        C810   1.406       .  A
C805        H812   1.083       .  S
C806        C807   1.418       .  A
C807        C808   1.405       .  A
C807        N814   1.437       .  S
C808        C809   1.401       .  A
C808        H813   1.084       .  S
C809        C810   1.414       .  A
C810        N811   1.442       .  S
N811        O815   1.263       .  A
N811        O816   1.262       .  A
N814        O817   1.263       .  A
N814        O818   1.262       .  A
C819        C820   1.402       .  A
C819        C824   1.403       .  A
C819        H826   1.084       .  S
C820        C821   1.415       .  A
C821        C822   1.407       .  A
C821        N828   1.443       .  S
C822        C823   1.405       .  A
C822        H827   1.083       .  S
C823        C824   1.415       .  A
C824        N825   1.438       .  S
N825        O829   1.263       .  A
N825        O830   1.263       .  A
N828        O831   1.263       .  A
N828        O832   1.263       .  A
C833        C834   1.402       .  A
C833        C838   1.405       .  A
C833        H840   1.084       .  S
C834        C835   1.414       .  A
C835        C836   1.406       .  A
C835        N842   1.441       .  S
C836        C837   1.405       .  A
C836        H841   1.084       .  S
C837        C838   1.416       .  A
C838        N839   1.438       .  S
N839        O843   1.263       .  A
N839        O844   1.263       .  A
N842        O845   1.263       .  A
N842        O846   1.263       .  A
C847        C848   1.407       .  A
C847        C852   1.398       .  A
C847        H854   1.079       .  S
C848        C849   1.417       .  A
C849        C850   1.407       .  A
C849        N856   1.440       .  S
C850        C851   1.403       .  A
C850        H855   1.084       .  S
C851        C852   1.411       .  A
C852        N853   1.444       .  S
N853        O857   1.263       .  A
N853        O858   1.262       .  A
N856        O859   1.263       .  A
N856        O860   1.263       .  A
C861        C862   1.407       .  A
C861        C866   1.405       .  A
C861        H868   1.083       .  S
C862        C863   1.417       .  A
C863        C864   1.397       .  A
C863        N870   1.432       .  S
C864        C865   1.399       .  A
C864        H869   1.084       .  S
C865        C866   1.413       .  A
C866        N867   1.438       .  S
N867        O871   1.263       .  A
N867        O872   1.262       .  A
N870        O873   1.263       .  A
N870        O874   1.262       .  A
C875        C876   1.410       .  A
C875        C880   1.405       .  A
C875        H882   1.082       .  S
C876        C877   1.420       .  A
C877        C878   1.401       .  A
C877        N884   1.439       .  S
C878        C879   1.400       .  A
C878        H883   1.084       .  S
C879        C880   1.412       .  A
C880        N881   1.440       .  S
N881        O885   1.263       .  A
N881        O886   1.262       .  A
N884        O887   1.263       .  A
N884        O888   1.263       .  A
C889        C890   1.403       .  A
C889        C894   1.400       .  A
C889        H896   1.084       .  S
C890        C891   1.414       .  A
C891        C892   1.400       .  A
C891        N898   1.432       .  S
C892        C893   1.402       .  A
C892        H897   1.084       .  S
C893        C894   1.416       .  A
C894        N895   1.438       .  S
N895        O899   1.263       .  A
N895        O900   1.262       .  A
N898        O901   1.262       .  A
N898        O902   1.262       .  A
C903        C904   1.408       .  A
C903        C908   1.405       .  A
C903        H910   1.082       .  S
C904        C905   1.418       .  A
C905        C906   1.403       .  A
C905        N912   1.439   1_455  S
C906        C907   1.400       .  A
C906        H911   1.084       .  S
C907        C908   1.414       .  A
C908        N909   1.445       .  S
N909        O913   1.263       .  A
N909        O914   1.262       .  A
N912        O915   1.263       .  A
N912        O916   1.263       .  A
C917        C918   1.400   1_455  A
C917        C922   1.396       .  A
C917        H924   1.084       .  S
C918        C919   1.413       .  A
C919        C920   1.409       .  A
C919        N926   1.444       .  S
C920        C921   1.410   1_655  A
C920        H925   1.083       .  S
C921        C922   1.413       .  A
C922        N923   1.433       .  S
N923        O927   1.262       .  A
N923        O928   1.262       .  A
N926        O929   1.262       .  A
N926        O930   1.263       .  A
C931        C932   1.415       .  A
C931        C936   1.405       .  A
C931        H938   1.079       .  S
C932        C933   1.419       .  A
C933        C934   1.400       .  A
C933        N940   1.437   1_545  S
C934        C935   1.398       .  A
C934        H939   1.075       .  S
C935        C936   1.410       .  A
C936        N937   1.441       .  S
N937        O941   1.263       .  A
N937        O942   1.262       .  A
N940        O943   1.262       .  A
N940        O944   1.263       .  A
C945        C946   1.404       .  A
C945        C950   1.404       .  A
C945        H952   1.083       .  S
C946        C947   1.415       .  A
C947        C948   1.402       .  A
C947        N954   1.438       .  S
C948        C949   1.403       .  A
C948        H953   1.084       .  S
C949        C950   1.415       .  A
C950        N951   1.438       .  S
N951        O955   1.263       .  A
N951        O956   1.263       .  A
N954        O957   1.263       .  A
N954        O958   1.263       .  A
C959        C960   1.402   1_545  A
C959        C964   1.395       .  A
C959        H966   1.085       .  S
C960        C961   1.419       .  A
C961        C962   1.411       .  A
C961        N968   1.449       .  S
C962        C963   1.408   1_565  A
C962        H967   1.083       .  S
C963        C964   1.411       .  A
C964        N965   1.436       .  S
N965        O969   1.263       .  A
N965        O970   1.263       .  A
N968        O971   1.262       .  A
N968        O972   1.263       .  A
