geometry optimzed in LAMMPS
_audit_creation_date              2020-11-30 
_audit_creation_method            'lammps2cif' 
_symmetry_space_group_name_H-M    'P1' 
_symmetry_Int_Tables_number       1 
_symmetry_cell_setting            triclinic 
loop_ 
_symmetry_equiv_pos_as_xyz 
  x,y,z 
_cell_length_a                    38.47719427 
_cell_length_b                    38.504053035549056 
_cell_length_c                    32.553177266539294 
_cell_angle_alpha                 89.99640439811262 
_cell_angle_beta                  90.03160762276622 
_cell_angle_gamma                 120.18319649340542 
loop_ 
_atom_site_label 
_atom_site_type_symbol 
_atom_site_fract_x 
_atom_site_fract_y 
_atom_site_fract_z 
_atom_site_charge 
C1          C  0.26672533  0.27625754  0.99856324     0.79800
N2          N  0.28536663  0.29674980  0.03320860    -0.78500
C3          C  0.31793978  0.33403975  0.03093364     0.82300
N4          N  0.33611887  0.34712467  0.49429551    -0.78400
C5          C  0.31756943  0.32678492  0.45957117     0.82400
N6          N  0.28534164  0.28871114  0.46252599    -0.80100
C7          C  0.68333307  0.69199813  0.99333160     0.79800
N8          N  0.66625148  0.67764716  0.03083121    -0.78500
C9          C  0.62861583  0.64495453  0.03327060     0.82300
N10         N  0.60941333  0.62340294  0.49814515    -0.78400
C11         C  0.62744812  0.63541259  0.46105509     0.82400
N12         N  0.66430394  0.66871085  0.45835513    -0.80100
N13         N  0.47471419  0.48815578  0.18316010    -0.37000
N14         N  0.52869280  0.53800762  0.24677045    -0.57600
N15         N  0.47063368  0.48296211  0.30819558    -0.37000
N16         N  0.41992973  0.43002840  0.24464782    -0.57600
C17         C  0.50798501  0.51242832  0.16086641     0.26600
C18         C  0.45088694  0.45591270  0.15960725     0.26600
C19         C  0.50344238  0.50602073  0.33135693     0.26600
C20         C  0.44657274  0.44945835  0.33025261     0.26600
C21         C  0.54578426  0.56311508  0.21458000     0.35200
C22         C  0.54328587  0.56056381  0.28095555     0.35200
C23         C  0.39700021  0.41561037  0.21067095     0.35200
C24         C  0.39518908  0.41246748  0.27703317     0.35200
C25         C  0.50524497  0.49535054  0.12264988    -0.22300
C26         C  0.46919584  0.45967457  0.12183942    -0.22300
C27         C  0.50022329  0.48701754  0.36856827    -0.22300
C28         C  0.46428313  0.45135619  0.36788407    -0.22300
C29         C  0.57179016  0.60176029  0.22831587    -0.23300
C30         C  0.57019005  0.60015812  0.27051469    -0.23300
C31         C  0.35756740  0.38837686  0.22147807    -0.23300
C32         C  0.35645811  0.38635660  0.26364022    -0.23300
C33         C  0.53932068  0.55083516  0.17311127    -0.18700
C34         C  0.41167426  0.42490624  0.17004811    -0.18700
C35         C  0.40794241  0.41844038  0.31834117    -0.18700
C36         C  0.53446179  0.54526096  0.32135133    -0.18700
H37         H  0.52673899  0.50760106  0.09775101     0.14200
H38         H  0.45747715  0.43912525  0.09611352     0.14200
H39         H  0.52129034  0.49806180  0.39391789     0.14200
H40         H  0.45233918  0.42949716  0.39247095     0.14200
H41         H  0.59003649  0.62821874  0.20989822     0.12500
H42         H  0.58703239  0.62519511  0.29113838     0.12500
H43         H  0.33228482  0.37152836  0.20111693     0.12500
H44         H  0.33027433  0.36771576  0.28226361     0.12500
H45         H  0.46707476  0.49447711  0.21162338     0.25800
H46         H  0.46390593  0.49123179  0.28027066     0.25800
C47         C  0.69205657  0.97930352  0.00336159     0.79800
N48         N  0.67598197  0.98108506  0.46546233    -0.78500
C49         C  0.64211033  0.98385429  0.46317049     0.82300
N50         N  0.62374533  0.98321673  0.99872772    -0.78400
C51         C  0.63818180  0.98077395  0.03586420     0.82400
N52         N  0.67234786  0.97883413  0.03819049    -0.80100
C53         C  0.27836703  0.98488667  0.99800535     0.79800
N54         N  0.29592801  0.98909618  0.03550212    -0.78500
C55         C  0.33339575  0.99391652  0.03815349     0.82300
N56         N  0.35292093  0.99413946  0.00341684    -0.78400
C57         C  0.33488820  0.98786707  0.46651080     0.82400
N58         N  0.29751597  0.98311282  0.46467476    -0.80100
N59         N  0.48707140  0.98405592  0.31270850    -0.37000
N60         N  0.54150469  0.98756069  0.24897289    -0.57600
N61         N  0.49029572  0.99578256  0.18714212    -0.37000
N62         N  0.43237836  0.98540322  0.25082937    -0.57600
C63         C  0.51201852  0.97615440  0.33500690     0.26600
C64         C  0.45417652  0.97387697  0.33592929     0.26600
C65         C  0.51496964  0.98923507  0.16283711     0.26600
C66         C  0.45859564  0.98992855  0.16388049     0.26600
C67         C  0.56471214  0.99209677  0.28202600     0.35200
C68         C  0.56524257  0.99587072  0.21562305     0.35200
C69         C  0.41383442  0.98773604  0.28511394     0.35200
C70         C  0.41586371  0.99444318  0.21886953     0.35200
C71         C  0.49477451  0.96086363  0.37298398    -0.22300
C72         C  0.45831437  0.95938868  0.37355334    -0.22300
C73         C  0.49906096  0.97981548  0.12344723    -0.22300
C74         C  0.46364433  0.98038324  0.12408043    -0.22300
C75         C  0.60332517  0.00302683  0.26959254    -0.23300
C76         C  0.60361014  0.00523099  0.22745229    -0.23300
C77         C  0.38494047  0.99767484  0.27479145    -0.23300
C78         C  0.38619338  0.00186364  0.23280907    -0.23300
C79         C  0.55089093  0.98441579  0.32307429    -0.18700
C80         C  0.42184526  0.97998151  0.32551042    -0.18700
C81         C  0.42562470  0.99387462  0.17708004    -0.18700
C82         C  0.55224354  0.99300831  0.17452494    -0.18700
H83         H  0.50733156  0.95202626  0.39789243     0.14200
H84         H  0.43741946  0.94927209  0.39902905     0.14200
H85         H  0.51165650  0.97323195  0.09687545     0.14200
H86         H  0.44372465  0.97416704  0.09816191     0.14200
H87         H  0.62851415  0.00841675  0.28882152     0.12500
H88         H  0.62911070  0.01282089  0.20775493     0.12500
H89         H  0.36495745  0.00142650  0.29532443     0.12500
H90         H  0.36733678  0.00937345  0.21460981     0.12500
H91         H  0.49335579  0.99824036  0.28444287     0.25800
H92         H  0.49570769  0.00550890  0.21736067     0.25800
C93         C  0.98583767  0.27067471  0.00405008     0.79800
N94         N  0.97894358  0.28591308  0.46775223    -0.78500
C95         C  0.97440917  0.31845425  0.47093175     0.82300
N96         N  0.97864787  0.33695423  0.00958985    -0.78400
C97         C  0.98189972  0.31947530  0.04440987     0.82400
N98         N  0.98544630  0.28604956  0.04173372    -0.80100
C99         C  0.98807685  0.68629355  0.00758694     0.79800
N100        N  0.98942250  0.66688971  0.04203403    -0.78500
C101        C  0.98675413  0.63038616  0.03899767     0.82300
N102        N  0.98256916  0.61337513  0.00155420    -0.78400
C103        C  0.98257869  0.63273113  0.46762977     0.82400
N104        N  0.98387322  0.66858593  0.47109764    -0.80100
N105        N  0.97442883  0.47435576  0.31827874    -0.37000
N106        N  0.97493292  0.41817822  0.25846214    -0.57600
N107        N  0.97416555  0.46896176  0.19339696    -0.37000
N108        N  0.97933290  0.52799819  0.25334868    -0.57600
C109        C  0.98369200  0.45133055  0.34202742     0.26600
C110        C  0.98534641  0.50865830  0.33928579     0.26600
C111        C  0.98321613  0.44412263  0.17253961     0.26600
C112        C  0.98536821  0.50167832  0.16957393     0.26600
C113        C  0.96604739  0.39569791  0.29276207     0.35200
C114        C  0.96615938  0.39278779  0.22650227     0.35200
C115        C  0.97173674  0.54557146  0.28535366     0.35200
C116        C  0.97217050  0.54292434  0.21889512     0.35200
C117        C  0.00085699  0.47126682  0.37848763    -0.22300
C118        C  0.00193999  0.50751005  0.37673524    -0.22300
C119        C  0.00032288  0.46124458  0.13504400    -0.22300
C120        C  0.00164819  0.49758047  0.13315495    -0.22300
C121        C  0.95170198  0.35576689  0.28263463    -0.23300
C122        C  0.95182586  0.35393673  0.24043722    -0.23300
C123        C  0.96001404  0.57206922  0.27118454    -0.23300
C124        C  0.96041037  0.57048027  0.22897258    -0.23300
C125        C  0.97430184  0.41165476  0.33285430    -0.18700
C126        C  0.97729164  0.53918579  0.32700180    -0.18700
C127        C  0.97852072  0.53367240  0.17860981    -0.18700
C128        C  0.97368106  0.40516345  0.18519675    -0.18700
H129        H  0.01095680  0.46052600  0.40397510     0.14200
H130        H  0.01294626  0.53012822  0.40062806     0.14200
H131        H  0.01031559  0.44860333  0.11128194     0.12100
H132        H  0.01285897  0.51841034  0.10764462     0.14200
H133        H  0.94278571  0.33077992  0.30346881     0.12500
H134        H  0.94289375  0.32727375  0.22215292     0.12500
H135        H  0.95221897  0.59073280  0.28929226     0.12500
H136        H  0.95302661  0.58770480  0.20810022     0.12500
H137        H  0.95861333  0.46574892  0.29075296     0.25800
H138        H  0.95855539  0.46271125  0.22097160     0.25800
O139        O  0.05185257  0.02658833  0.47551942    -0.88700
C140        C  0.02092269  0.94379869  0.06567835     0.87300
Mg141      Mg  0.03714960  0.07350298  0.47809455     1.58100
O142        O  0.96400223  0.90761492  0.47338067    -0.88500
O143        O  0.04557086  0.97806985  0.43570270    -0.75800
C144        C  0.84328370  0.98236158  0.01909906     0.92300
O145        O  0.04498949  0.03967921  0.07129980    -0.75600
O146        O  0.87555604  0.01560908  0.02478167    -0.83100
Mg147      Mg  0.08031084  0.02115489  0.02794016     1.58000
C148        C  0.83772041  0.83629417  0.48384137     0.92300
O149        O  0.12161849  0.00452254  0.49572911    -0.81400
H150        H  0.96113532  0.89816050  0.41275591    -0.06700
C151        C  0.91207282  0.93973944  0.06565563     0.87200
O152        O  0.98299032  0.03805025  0.43514081    -0.75900
O153        O  0.03370228  0.95873504  0.03151316    -0.88700
O154        O  0.87067936  0.83709053  0.49084769    -0.81500
C155        C  0.97914678  0.83227787  0.01854224     0.92400
C156        C  0.12325835  0.97308940  0.48739680     0.92200
Mg157      Mg  0.88589431  0.93385250  0.47539820     1.58000
O158        O  0.84356646  0.95019570  0.01052733    -0.81400
O159        O  0.92278168  0.91589318  0.43373456    -0.75600
O160        O  0.01163383  0.86522894  0.01169410    -0.81500
O161        O  0.12996357  0.08654312  0.02203859    -0.83200
O162        O  0.95645507  0.08958967  0.49627919    -0.81500
C163        C  0.94978005  0.90652681  0.43904167     0.86700
O164        O  0.93283413  0.99612501  0.47370656    -0.88600
O165        O  0.91458883  0.92738015  0.03142814    -0.88800
O166        O  0.92111193  0.97597418  0.07122767    -0.75800
Mg167      Mg  0.02611237  0.92285223  0.47731567     1.58000
O168        O  0.94574038  0.83104320  0.02361670    -0.83200
H169        H  0.06406157  0.03461854  0.41542958    -0.06900
O170        O  0.00231307  0.04627998  0.03243881    -0.88500
H171        H  0.00675849  0.05737575  0.09281570    -0.06700
H172        H  0.92682885  0.00061840  0.41324580    -0.06900
C173        C  0.01753299  0.04847021  0.06646067     0.86600
C174        C  0.05457867  0.01429679  0.44131972     0.87200
C175        C  0.94637262  0.01120636  0.43977938     0.87300
H176        H  0.90271999  0.91947396  0.09158763    -0.06900
O177        O  0.98457033  0.91639591  0.07088863    -0.75900
Mg178      Mg  0.94043784  0.03121651  0.02971642     1.58000
H179        H  0.04091805  0.95479598  0.09185095    -0.06900
C180        C  0.12768603  0.11823269  0.01883782     0.92300
O181        O  0.02180210  0.12281990  0.48162698    -0.83100
C182        C  0.98860568  0.12187589  0.48684684     0.92300
O183        O  0.09158281  0.93911310  0.48253507    -0.83100
Mg184      Mg  0.92984596  0.88046190  0.02844471     1.58200
O185        O  0.09427382  0.11682980  0.01348457    -0.81500
O186        O  0.83642925  0.86841656  0.47890720    -0.83200
C187        C  0.98703961  0.72425871  0.01113402    -0.06500
C188        C  0.95394952  0.72442556  0.49368010    -0.17600
C189        C  0.94980582  0.75848180  0.49605324     0.10700
C190        C  0.98015578  0.79419091  0.01751100    -0.06400
C191        C  0.01142443  0.79206716  0.03746719    -0.17700
C192        C  0.01513112  0.75762925  0.03462531     0.10700
S193        S  0.90908018  0.75723257  0.46737206    -0.32600
S194        S  0.05726697  0.75897827  0.06033640    -0.32700
H195        H  0.06304619  0.73546263  0.03112109     0.28700
H196        H  0.93243945  0.79606214  0.45090108     0.28700
H197        H  0.93200361  0.69859849  0.47635424     0.19300
H198        H  0.03343956  0.81764057  0.05502499     0.19300
C199        C  0.97708012  0.61217755  0.42761448    -0.06500
C200        C  0.94817113  0.57114467  0.42561639    -0.17600
C201        C  0.94584951  0.54757658  0.39192365     0.10700
C202        C  0.97415380  0.56475722  0.35969933    -0.06400
C203        C  0.00205091  0.60620866  0.36074130    -0.17700
C204        C  0.00329646  0.63014412  0.39393659     0.10700
S205        S  0.90698668  0.49532972  0.39273782    -0.32600
S206        S  0.04140540  0.68241054  0.39355415    -0.32700
H207        H  0.01373214  0.69561963  0.39974028     0.28700
H208        H  0.90260825  0.49085599  0.34985512     0.28700
H209        H  0.92765213  0.55704793  0.45109343     0.19300
H210        H  0.02383590  0.61973051  0.33619286     0.19300
C211        C  0.97887769  0.55908070  0.14400874    -0.06500
C212        C  0.01118857  0.59859160  0.14066828    -0.17600
C213        C  0.01475980  0.62265570  0.10682349     0.10700
C214        C  0.98497770  0.60723434  0.07588477    -0.06400
C215        C  0.95266685  0.56772262  0.07933518    -0.17700
C216        C  0.94907773  0.54367408  0.11307183     0.10700
S217        S  0.05922292  0.67155249  0.10368546    -0.32600
S218        S  0.90599542  0.49354681  0.11458835    -0.32700
H219        H  0.90344334  0.49007403  0.15760527     0.28700
H220        H  0.06294155  0.67149624  0.06071683     0.28700
H221        H  0.03449849  0.61024144  0.16394717     0.19300
H222        H  0.92974843  0.55558396  0.05564852     0.19300
C223        C  0.98809653  0.16007432  0.48582348    -0.06500
C224        C  0.02146801  0.19503878  0.00638978    -0.17600
C225        C  0.02133396  0.23098958  0.01221170     0.10700
C226        C  0.98579042  0.23163091  0.49726559    -0.06400
C227        C  0.95333053  0.19786039  0.47903725    -0.17700
C228        C  0.95415437  0.16229030  0.47296384     0.10700
S229        S  0.06524741  0.27258423  0.03508593    -0.32600
S230        S  0.91139681  0.12129016  0.44787482    -0.32700
H231        H  0.93377003  0.10689697  0.42723268     0.28700
H232        H  0.06323056  0.30283966  0.01286374     0.28700
H233        H  0.04704492  0.19306021  0.01728774     0.19300
H234        H  0.92707513  0.19924560  0.46941177     0.19300
C235        C  0.97795039  0.33567083  0.08418415    -0.06500
C236        C  0.94566518  0.34267871  0.08823570    -0.17600
C237        C  0.94211551  0.36260881  0.12232912     0.10700
C238        C  0.97181942  0.37667262  0.15321803    -0.06400
C239        C  0.00308059  0.36792704  0.15048704    -0.17700
C240        C  0.00669362  0.34789439  0.11611123     0.10700
S241        S  0.90003519  0.37098925  0.12376211    -0.32600
S242        S  0.05021115  0.34197171  0.11340117    -0.32700
H243        H  0.05611049  0.34854912  0.07086548     0.28700
H244        H  0.89677323  0.37011142  0.16682223     0.28700
H245        H  0.92332030  0.33322776  0.06406660     0.19300
H246        H  0.02612565  0.37896131  0.17402802     0.19300
C247        C  0.97389712  0.38604174  0.36705076    -0.06500
C248        C  0.94299565  0.37276566  0.39620452    -0.17600
C249        C  0.94129116  0.34894414  0.42937665     0.10700
C250        C  0.97147336  0.33861797  0.43390301    -0.06400
C251        C  0.00160801  0.35074269  0.40401818    -0.17700
C252        C  0.00346250  0.37477574  0.37095970     0.10700
S253        S  0.89936084  0.33177767  0.46419571    -0.32600
S254        S  0.04491072  0.39117711  0.33565334    -0.32700
H255        H  0.04912146  0.42897001  0.32753905     0.28700
H256        H  0.89718360  0.29512757  0.47391546     0.28700
H257        H  0.91994606  0.38089283  0.39289811     0.19300
H258        H  0.02493849  0.34302341  0.40749570     0.19300
C259        C  0.23890241  0.98110576  0.49658955    -0.06500
C260        C  0.20949774  0.95257071  0.47020934    -0.17600
C261        C  0.17219663  0.95021112  0.46494788     0.10700
C262        C  0.16342886  0.97640061  0.48724013    -0.06400
C263        C  0.19379711  0.00774585  0.00924056    -0.17700
C264        C  0.23116207  0.01058322  0.01430330     0.10700
S265        S  0.13802313  0.91441974  0.42808150    -0.32600
S266        S  0.26756456  0.05088986  0.04608705    -0.32700
H267        H  0.30057926  0.06013039  0.02051552     0.28700
H268        H  0.12456849  0.93988027  0.41296853     0.28700
H269        H  0.21580897  0.93217032  0.45319438     0.19300
H270        H  0.18774101  0.02830440  0.02629545     0.19300
C271        C  0.35585908  0.98788485  0.42854924    -0.06500
C272        C  0.33672255  0.95512287  0.40151017    -0.17600
C273        C  0.35722493  0.95134002  0.36772724     0.10700
C274        C  0.39736337  0.98169525  0.36001369    -0.06400
C275        C  0.41582083  0.01504894  0.38622334    -0.17700
C276        C  0.39559542  0.01856448  0.42011288     0.10700
S277        S  0.33102976  0.90664844  0.33669225    -0.32600
S278        S  0.42194198  0.06349277  0.45064734    -0.32700
H279        H  0.38755818  0.06545260  0.46135077     0.28700
H280        H  0.36524318  0.90543548  0.32379865     0.28700
H281        H  0.30623347  0.93142300  0.40781824     0.19300
H282        H  0.44642841  0.03862209  0.38014262     0.19300
C283        C  0.39872465  0.99520906  0.14487856    -0.06500
C284        C  0.41292276  0.03002856  0.12090350    -0.17600
C285        C  0.39037144  0.03161037  0.08792449     0.10700
C286        C  0.35296276  0.99753911  0.07816726    -0.06400
C287        C  0.33769296  0.96356614  0.10352288    -0.17700
C288        C  0.36034659  0.96183592  0.13638751     0.10700
S289        S  0.41098276  0.07779283  0.05918572    -0.32600
S290        S  0.33972340  0.91542356  0.16475320    -0.32700
H291        H  0.37650339  0.91680436  0.17135805     0.28700
H292        H  0.37379226  0.07241719  0.04591641     0.28700
H293        H  0.44211949  0.05588278  0.12752175     0.19300
H294        H  0.30919149  0.93718412  0.09595874     0.19300
C295        C  0.73087615  0.98043569  0.00695381    -0.06500
C296        C  0.73216013  0.94954556  0.02856787    -0.17600
C297        C  0.76842941  0.94984221  0.03441589     0.10700
C298        C  0.80454417  0.98191136  0.01851578    -0.06400
C299        C  0.80320700  0.01309539  0.99741599    -0.17700
C300        C  0.76700584  0.01279255  0.99158418     0.10700
S301        S  0.76667026  0.90899041  0.06319025    -0.32600
S302        S  0.76710974  0.05309950  0.46392971    -0.32700
H303        H  0.73777495  0.05497939  0.48802556     0.28700
H304        H  0.80479125  0.93210771  0.08133130     0.28700
H305        H  0.70463112  0.92498866  0.04107147     0.19300
H306        H  0.83057630  0.03767095  0.98465083     0.19300
C307        C  0.62584592  0.98786282  0.42345388    -0.06500
C308        C  0.61127415  0.95608619  0.39515621    -0.17600
C309        C  0.58728527  0.95430604  0.36176104     0.10700
C310        C  0.57844900  0.98548309  0.35593928    -0.06400
C311        C  0.59488985  0.01823309  0.38303809    -0.17700
C312        C  0.61850729  0.01982545  0.41645511     0.10700
S313        S  0.56741341  0.91069258  0.32896391    -0.32600
S314        S  0.63806147  0.06322712  0.44953081    -0.32700
H315        H  0.67287535  0.06242614  0.46115868     0.28700
H316        H  0.53143539  0.90969518  0.31876533     0.28700
H317        H  0.61642728  0.93125989  0.40055815     0.19300
H318        H  0.58866138  0.04246481  0.37845718     0.19300
C319        C  0.57834696  0.99205894  0.14145691    -0.06500
C320        C  0.57930297  0.95644347  0.13535885    -0.17600
C321        C  0.59881620  0.95180077  0.10129766     0.10700
C322        C  0.61847246  0.98379528  0.07317536    -0.06400
C323        C  0.61830928  0.01967832  0.07981712    -0.17700
C324        C  0.59879894  0.02430579  0.11375082     0.10700
S325        S  0.59551522  0.90373121  0.09434900    -0.32600
S326        S  0.60004744  0.07154403  0.11922524    -0.32700
H327        H  0.59481287  0.06968711  0.16204309     0.28700
H328        H  0.59767653  0.90489553  0.05123558     0.28700
H329        H  0.56321532  0.93149276  0.15633480     0.19300
H330        H  0.63342821  0.04428113  0.05823160     0.19300
C331        C  0.79948079  0.79708132  0.48383154    -0.06500
C332        C  0.76744393  0.79252774  0.45921132    -0.17600
C333        C  0.72938691  0.75791570  0.46149745     0.10700
C334        C  0.72285364  0.72671509  0.48894998    -0.06400
C335        C  0.75519545  0.73133213  0.01254514    -0.17700
C336        C  0.79349647  0.76555727  0.01074659     0.10700
S337        S  0.69003939  0.75631755  0.42994459    -0.32600
S338        S  0.83143935  0.76573014  0.04337446    -0.32700
H339        H  0.84217316  0.80300821  0.06144556     0.28700
H340        H  0.65927670  0.73662679  0.45915670     0.28700
H341        H  0.77180765  0.81654105  0.43866104     0.19300
H342        H  0.75030251  0.70651321  0.03215532     0.19300
C343        C  0.60535344  0.61402379  0.42392547    -0.06500
C344        C  0.56528968  0.60477267  0.42024568    -0.17600
C345        C  0.54220758  0.58399300  0.38610539     0.10700
C346        C  0.55924799  0.57125535  0.35554954    -0.06400
C347        C  0.59942235  0.58077670  0.35887709    -0.17700
C348        C  0.62282229  0.60225156  0.39279073     0.10700
S349        S  0.49116854  0.57403918  0.38148318    -0.32600
S350        S  0.67381146  0.61211945  0.39725432    -0.32700
H351        H  0.67429838  0.59302844  0.36058811     0.28700
H352        H  0.49071826  0.59353502  0.41785503     0.28700
H353        H  0.55224439  0.61424923  0.44409458     0.19300
H354        H  0.61195723  0.57047050  0.33529194     0.19300
C355        C  0.60873682  0.62845476  0.07313218    -0.06500
C356        C  0.62763401  0.61626330  0.10191059    -0.17600
C357        C  0.60613363  0.59148461  0.13515716     0.10700
C358        C  0.56509071  0.57950499  0.14047065    -0.06400
C359        C  0.54713827  0.59400988  0.11315653    -0.17700
C360        C  0.56844860  0.61841050  0.07987534     0.10700
S361        S  0.63201175  0.57420659  0.16807650    -0.32600
S362        S  0.54239751  0.63548638  0.04680790    -0.32700
H363        H  0.57695797  0.67101841  0.03420629     0.28700
H364        H  0.59857158  0.53594082  0.17530527     0.28700
H365        H  0.65844185  0.62363972  0.09684440     0.19300
H366        H  0.51594337  0.58562463  0.11745622     0.19300
C367        C  0.23151347  0.23540449  0.00298471    -0.06500
C368        C  0.20168630  0.22965064  0.03156913    -0.17600
C369        C  0.16862745  0.19146607  0.03916995     0.10700
C370        C  0.16486497  0.15792855  0.01764093    -0.06400
C371        C  0.19811833  0.15926164  0.49602053    -0.17700
C372        C  0.23266347  0.19661465  0.48866248     0.10700
S373        S  0.13274281  0.18733753  0.07728963    -0.32600
S374        S  0.27209943  0.19733628  0.45811050    -0.32700
H375        H  0.30413706  0.22913564  0.47934134     0.28700
H376        H  0.12215756  0.14836305  0.09018442     0.28700
H377        H  0.20425665  0.25518093  0.04830620     0.19300
H378        H  0.19555373  0.13267333  0.48165577     0.19300
C379        C  0.38000091  0.39196573  0.35117661    -0.06500
C380        C  0.36614815  0.40931370  0.37991298    -0.17600
C381        C  0.34301685  0.38756640  0.41371828     0.10700
C382        C  0.33328419  0.34719814  0.41953739    -0.06400
C383        C  0.34514854  0.32901373  0.38954938    -0.17700
C384        C  0.36886302  0.35109641  0.35582559     0.10700
S385        S  0.32741398  0.41345802  0.44875314    -0.32600
S386        S  0.38604079  0.32623749  0.32134883    -0.32700
H387        H  0.42362158  0.36022813  0.31293635     0.28700
H388        H  0.29186133  0.37896555  0.46141364     0.28700
H389        H  0.37421361  0.44048397  0.37639590     0.19300
H390        H  0.33836076  0.29832521  0.39391694     0.19300
C391        C  0.38449377  0.40080339  0.13620712    -0.06500
C392        C  0.37446056  0.36059643  0.13194025    -0.17600
C393        C  0.35180577  0.33766986  0.09847899     0.10700
C394        C  0.33937148  0.35553237  0.06828606    -0.06400
C395        C  0.34853130  0.39543595  0.07322317    -0.17700
C396        C  0.37005255  0.41789718  0.10736581     0.10700
S397        S  0.34148550  0.28658879  0.09522707    -0.32600
S398        S  0.37792102  0.46800202  0.11264061    -0.32700
H399        H  0.37931308  0.46903280  0.15581587     0.28700
H400        H  0.34782716  0.28736367  0.05260766     0.28700
H401        H  0.38525343  0.34736635  0.15431800     0.19300
H402        H  0.33831925  0.40899429  0.05059840     0.19300
C403        C  0.27157360  0.27201459  0.50042623     0.79800
N404        N  0.29037709  0.29319190  0.53471571    -0.78500
C405        C  0.32296170  0.33044018  0.53175627     0.82300
N406        N  0.33136068  0.35143800  0.99379975    -0.78400
C407        C  0.31291136  0.33174242  0.95874601     0.82400
N408        N  0.28070761  0.29366015  0.96102057    -0.80100
C409        C  0.68342527  0.68959650  0.49270131     0.79800
N410        N  0.66554760  0.67673270  0.53014607    -0.78500
C411        C  0.62811220  0.64376738  0.53276154     0.82300
N412        N  0.60884347  0.62634359  0.99833808    -0.78400
C413        C  0.62618241  0.63975404  0.96115164     0.82400
N414        N  0.66329067  0.67271916  0.95867601    -0.80100
N415        N  0.47407416  0.49069224  0.68387767    -0.37000
N416        N  0.52652483  0.54215842  0.74761471    -0.57600
N417        N  0.46802648  0.48807068  0.80886064    -0.37000
N418        N  0.41865719  0.43372108  0.74518213    -0.57600
C419        C  0.50779221  0.51474606  0.66213918     0.26600
C420        C  0.45115519  0.45784459  0.66068977     0.26600
C421        C  0.50064607  0.51135372  0.83220901     0.26600
C422        C  0.44395305  0.45461165  0.83094415     0.26600
C423        C  0.54383115  0.56678797  0.71516970     0.35200
C424        C  0.54068793  0.56525887  0.78148177     0.35200
C425        C  0.39630236  0.41861420  0.71092797     0.35200
C426        C  0.39332994  0.41698274  0.77728340     0.35200
C427        C  0.50627728  0.49689513  0.62467697    -0.22300
C428        C  0.47051836  0.46096908  0.62375189    -0.22300
C429        C  0.49727611  0.49256554  0.86957716    -0.22300
C430        C  0.46145354  0.45675442  0.86877931    -0.22300
C431        C  0.56940435  0.60572517  0.72844393    -0.23300
C432        C  0.56753476  0.60472854  0.77063141    -0.23300
C433        C  0.35663991  0.39180984  0.72127413    -0.23300
C434        C  0.35476598  0.39080669  0.76344847    -0.23300
C435        C  0.53836322  0.55367677  0.67400777    -0.18700
C436        C  0.41182411  0.42683310  0.67059607    -0.18700
C437        C  0.40549845  0.42341401  0.81877251    -0.18700
C438        C  0.53178580  0.55044679  0.82199056    -0.18700
H439        H  0.52837364  0.50881601  0.60029520     0.14200
H440        H  0.45966555  0.43986764  0.59844671     0.14200
H441        H  0.51822354  0.50377481  0.89502408     0.14200
H442        H  0.44947598  0.43492220  0.89338753     0.14200
H443        H  0.58779222  0.63192863  0.70975570     0.12500
H444        H  0.58421215  0.63003920  0.79098957     0.12500
H445        H  0.33172923  0.37458499  0.70060869     0.12500
H446        H  0.32822126  0.37266743  0.78179986     0.12500
H447        H  0.46558243  0.49756294  0.71158175     0.25800
H448        H  0.46139642  0.49604094  0.78068868     0.25800
C449        C  0.69021500  0.97781058  0.50283552     0.79800
N450        N  0.67704144  0.98116088  0.96594151    -0.78500
C451        C  0.64263737  0.98296586  0.96370533     0.82300
N452        N  0.62283594  0.98349345  0.49814195    -0.78400
C453        C  0.63630811  0.97944053  0.53525361     0.82400
N454        N  0.67003907  0.97664282  0.53758475    -0.80100
C455        C  0.27822426  0.98315143  0.49962118     0.79800
N456        N  0.29600989  0.98658774  0.53678211    -0.78500
C457        C  0.33341008  0.99122254  0.53878453     0.82300
N458        N  0.35275267  0.99206889  0.50359230    -0.78400
C459        C  0.33527027  0.98919932  0.96615683     0.82400
N460        N  0.29791614  0.98427886  0.96356571    -0.80100
N461        N  0.48664694  0.98164651  0.81409333    -0.37000
N462        N  0.53898625  0.98189920  0.75004687    -0.57600
N463        N  0.48700016  0.98938082  0.68879089    -0.37000
N464        N  0.43141092  0.98272484  0.75269897    -0.57600
C465        C  0.51090094  0.97258002  0.83610150     0.26600
C466        C  0.45400644  0.97207292  0.83744712     0.26600
C467        C  0.51040845  0.98083170  0.66476120     0.26600
C468        C  0.45445926  0.98219570  0.66621820     0.26600
C469        C  0.56284813  0.98759067  0.78284325     0.35200
C470        C  0.56239300  0.99036256  0.71641072     0.35200
C471        C  0.41454946  0.98736146  0.78705383     0.35200
C472        C  0.41487102  0.99169837  0.72076306     0.35200
C473        C  0.49348688  0.95714607  0.87397823    -0.22300
C474        C  0.45756844  0.95679098  0.87481944    -0.22300
C475        C  0.49267889  0.96839168  0.62639309    -0.22300
C476        C  0.45746951  0.96936393  0.62728371    -0.22300
C477        C  0.60153615  0.99933861  0.76999806    -0.23300
C478        C  0.60123336  0.00102821  0.72780815    -0.23300
C479        C  0.38673053  0.99882097  0.77687527    -0.23300
C480        C  0.38689748  0.00150080  0.73477358    -0.23300
C481        C  0.54948266  0.98027217  0.82401222    -0.18700
C482        C  0.42254771  0.97950815  0.82730324    -0.18700
C483        C  0.42294686  0.98855872  0.67908294    -0.18700
C484        C  0.54852279  0.98629374  0.67553157    -0.18700
H485        H  0.50561808  0.94753922  0.89862713     0.14200
H486        H  0.43667086  0.94690554  0.90028915     0.14200
H487        H  0.50409373  0.95980017  0.60028169     0.14200
H488        H  0.43647127  0.96153388  0.60207299     0.14200
H489        H  0.62716330  0.00569810  0.78899882     0.12500
H490        H  0.62662281  0.00903466  0.70780111     0.12500
H491        H  0.36801975  0.00433195  0.79756969     0.12500
H492        H  0.36834038  0.00939132  0.71655618     0.12500
H493        H  0.49327160  0.99623323  0.78598608     0.25800
H494        H  0.49409356  0.00174532  0.71802751     0.25800
C495        C  0.98302290  0.26817534  0.50197650     0.79800
N496        N  0.98272456  0.28868236  0.96955027    -0.78500
C497        C  0.97914108  0.32180571  0.97225291     0.82300
N498        N  0.97401408  0.33331797  0.50848285    -0.78400
C499        C  0.97834372  0.31616656  0.54303891     0.82400
N500        N  0.98283351  0.28332483  0.53984146    -0.80100
C501        C  0.98814863  0.68595657  0.50873301     0.79800
N502        N  0.99050213  0.66685637  0.54294777    -0.78500
C503        C  0.98869531  0.63077163  0.53955178     0.82300
N504        N  0.98433379  0.61388716  0.50203072    -0.78400
C505        C  0.98181250  0.63247235  0.96688403     0.82400
N506        N  0.98396639  0.66877583  0.97003828    -0.80100
N507        N  0.97749979  0.47487944  0.81788940    -0.37000
N508        N  0.97973807  0.41911173  0.75786599    -0.57600
N509        N  0.97961109  0.47004209  0.69301500    -0.37000
N510        N  0.98343133  0.52878314  0.75315325    -0.57600
C511        C  0.98696684  0.45205176  0.84168742     0.26600
C512        C  0.98754327  0.50886822  0.83918511     0.26600
C513        C  0.98794623  0.44482651  0.67183813     0.26600
C514        C  0.99051890  0.50263377  0.66911114     0.26600
C515        C  0.97098002  0.39674506  0.79223938     0.35200
C516        C  0.97142263  0.39370365  0.72596624     0.35200
C517        C  0.97517850  0.54620529  0.78485835     0.35200
C518        C  0.97706102  0.54397023  0.71844168     0.35200
C519        C  0.00332903  0.47178898  0.87846318    -0.22300
C520        C  0.00366468  0.50765711  0.87688263    -0.22300
C521        C  0.00432167  0.46159172  0.63401584    -0.22300
C522        C  0.00599971  0.49811538  0.63230904    -0.22300
C523        C  0.95733866  0.35691389  0.78222604    -0.23300
C524        C  0.95763359  0.35499382  0.74005112    -0.23300
C525        C  0.96392596  0.57290375  0.77025277    -0.23300
C526        C  0.96523474  0.57158100  0.72810870    -0.23300
C527        C  0.97846291  0.41265924  0.83237395    -0.18700
C528        C  0.97953948  0.53938027  0.82669724    -0.18700
C529        C  0.98374329  0.53469878  0.67825147    -0.18700
C530        C  0.97827343  0.40580675  0.68451737    -0.18700
H531        H  0.01344035  0.46116873  0.90404534     0.14200
H532        H  0.01405067  0.53006375  0.90096212     0.14200
H533        H  0.01354254  0.44857011  0.60992053     0.12100
H534        H  0.01671312  0.51869723  0.60657664     0.14200
H535        H  0.94863431  0.33201619  0.80312848     0.12500
H536        H  0.94906367  0.32833295  0.72189338     0.12500
H537        H  0.95573072  0.59145263  0.78801835     0.12500
H538        H  0.95825620  0.58894748  0.70700962     0.12500
H539        H  0.96220505  0.46630667  0.79007134     0.25800
H540        H  0.96448776  0.46408882  0.72083529     0.25800
O541        O  0.05129813  0.02724643  0.97442874    -0.88700
C542        C  0.01857879  0.94174766  0.56599978     0.87300
Mg543      Mg  0.03686348  0.07437086  0.97789325     1.58100
O544        O  0.96468328  0.90829268  0.97428183    -0.88500
O545        O  0.04465272  0.97838650  0.93486040    -0.75800
C546        C  0.84194624  0.98126385  0.51800746     0.92300
O547        O  0.04295873  0.03782122  0.57226395    -0.75600
O548        O  0.87430410  0.01446953  0.52384660    -0.83100
Mg549      Mg  0.07902601  0.01937550  0.53011038     1.58000
C550        C  0.83879177  0.83743024  0.98596474     0.92300
O551        O  0.12192850  0.00626404  0.99171231    -0.81400
H552        H  0.96104781  0.89805334  0.91379678    -0.06700
C553        C  0.91043106  0.93839091  0.56427517     0.87200
O554        O  0.98257130  0.03935511  0.93510792    -0.75900
O555        O  0.03201002  0.95703602  0.53211263    -0.88700
O556        O  0.87154176  0.83795747  0.99348303    -0.81500
C557        C  0.97713910  0.83066915  0.51842961     0.92400
C558        C  0.12380212  0.97483880  0.98406280     0.92200
Mg559      Mg  0.88706013  0.93486013  0.97691275     1.58000
O560        O  0.84219331  0.94918287  0.50885270    -0.81400
O561        O  0.92331882  0.91651438  0.93489986    -0.75600
O562        O  0.00962018  0.86338082  0.51080431    -0.81500
O563        O  0.12914127  0.08461695  0.52601626    -0.83200
O564        O  0.95673764  0.09069266  0.99711371    -0.81500
C565        C  0.95009525  0.90685246  0.94008675     0.86700
O566        O  0.93373064  0.99711291  0.97467875    -0.88600
O567        O  0.91301546  0.92616655  0.52999098    -0.88800
O568        O  0.91975789  0.97467433  0.57009813    -0.75800
Mg569      Mg  0.02678527  0.92385240  0.97707871     1.58000
O570        O  0.94381930  0.82964375  0.52326954    -0.83200
H571        H  0.06169231  0.03442708  0.91397216    -0.06900
O572        O  0.00158548  0.04534010  0.53226229    -0.88500
H573        H  0.00482163  0.05606200  0.59265005    -0.06700
H574        H  0.92594081  0.00155537  0.91457418    -0.06900
C575        C  0.01601057  0.04716088  0.56663359     0.86600
C576        C  0.05321401  0.01453597  0.94016001     0.87200
C577        C  0.94619864  0.01226096  0.94054999     0.87300
H578        H  0.90083162  0.91795619  0.59007287    -0.06900
O579        O  0.98206050  0.91454489  0.57055487    -0.75900
Mg580      Mg  0.93950037  0.03010255  0.52886952     1.58000
H581        H  0.03813162  0.95234383  0.59252499    -0.06900
C582        C  0.12817968  0.11686319  0.52098657     0.92300
O583        O  0.02199105  0.12384664  0.98234562    -0.83100
C584        C  0.98894430  0.12304011  0.98798799     0.92300
O585        O  0.09232074  0.94051138  0.98065479    -0.83100
Mg586      Mg  0.92817216  0.87923423  0.52710311     1.58200
O587        O  0.09557557  0.11647895  0.51293112    -0.81500
O588        O  0.83783548  0.86968476  0.98077288    -0.83200
C589        C  0.98609396  0.72329360  0.51264403    -0.06500
C590        C  0.95590697  0.72649074  0.99117147    -0.17600
C591        C  0.95226071  0.76083823  0.99384930     0.10700
C592        C  0.97811607  0.79256254  0.51856635    -0.06400
C593        C  0.01009646  0.79129935  0.53798499    -0.17700
C594        C  0.01446389  0.75726196  0.53517435     0.10700
S595        S  0.91241980  0.76073872  0.96451151    -0.32600
S596        S  0.05802891  0.76005254  0.55910271    -0.32700
H597        H  0.06355303  0.73681537  0.52931968     0.28700
H598        H  0.93593310  0.80037886  0.95012020     0.28700
H599        H  0.93417250  0.70117832  0.97310521     0.19300
H600        H  0.03238882  0.81739904  0.55470338     0.19300
C601        C  0.97696159  0.61193858  0.92684572    -0.06500
C602        C  0.94854908  0.57073279  0.92469406    -0.17600
C603        C  0.94690394  0.54734115  0.89106089     0.10700
C604        C  0.97563847  0.56475032  0.85923778    -0.06400
C605        C  0.00295855  0.60635387  0.86036063    -0.17700
C606        C  0.00326975  0.63018184  0.89325361     0.10700
S607        S  0.90802280  0.49511473  0.89114659    -0.32600
S608        S  0.04023279  0.68282296  0.89244382    -0.32700
H609        H  0.01163879  0.69493597  0.89811529     0.28700
H610        H  0.90411218  0.49131673  0.84817830     0.28700
H611        H  0.92775910  0.55640078  0.94991693     0.19300
H612        H  0.02493209  0.62015840  0.83601932     0.19300
C613        C  0.98353498  0.55975623  0.64361511    -0.06500
C614        C  0.01488021  0.59978430  0.64063846    -0.17600
C615        C  0.01754829  0.62381259  0.60711984     0.10700
C616        C  0.98783870  0.60775918  0.57614408    -0.06400
C617        C  0.95650275  0.56772700  0.57923137    -0.17700
C618        C  0.95376434  0.54375290  0.61267985     0.10700
S619        S  0.06083334  0.67357402  0.60445394    -0.32600
S620        S  0.91171206  0.49299896  0.61392901    -0.32700
H621        H  0.90868718  0.48969532  0.65694611     0.28700
H622        H  0.06463425  0.67424959  0.56145942     0.28700
H623        H  0.03808595  0.61195627  0.66401806     0.19300
H624        H  0.93362206  0.55512742  0.55552998     0.19300
C625        C  0.98881396  0.16143732  0.98783421    -0.06500
C626        C  0.02111883  0.19447009  0.50282542    -0.17600
C627        C  0.02047134  0.23020277  0.50828619     0.10700
C628        C  0.98761773  0.23353845  0.99975566    -0.06400
C629        C  0.95543957  0.20047921  0.98023203    -0.17700
C630        C  0.95569103  0.16461413  0.97399781     0.10700
S631        S  0.06496411  0.27293170  0.52884132    -0.32600
S632        S  0.91339463  0.12456322  0.94737157    -0.32700
H633        H  0.93572990  0.10959255  0.92770359     0.28700
H634        H  0.06075919  0.30226295  0.50730020     0.28700
H635        H  0.04738091  0.19330220  0.51285635     0.19300
H636        H  0.92989704  0.20268478  0.96964705     0.19300
C637        C  0.97609276  0.33301332  0.58317256    -0.06500
C638        C  0.94498867  0.34163620  0.58842026    -0.17600
C639        C  0.94353860  0.36267745  0.62267242     0.10700
C640        C  0.97442945  0.37656944  0.65231817    -0.06400
C641        C  0.00435370  0.36602279  0.64855679    -0.17700
C642        C  0.00559579  0.34450323  0.61424936     0.10700
S643        S  0.90231415  0.37230788  0.62596748    -0.32600
S644        S  0.04710377  0.33547899  0.61051719    -0.32700
H645        H  0.05363920  0.34405861  0.56831850     0.28700
H646        H  0.90177348  0.37424620  0.66907483     0.28700
H647        H  0.92189534  0.33253096  0.56508665     0.19300
H648        H  0.02809101  0.37653530  0.67131293     0.19300
C649        C  0.97798771  0.38723669  0.86677297    -0.06500
C650        C  0.94732059  0.37464438  0.89611156    -0.17600
C651        C  0.94607036  0.35193506  0.93009300     0.10700
C652        C  0.97621223  0.34157963  0.93495002    -0.06400
C653        C  0.00608382  0.35295603  0.90488727    -0.17700
C654        C  0.00773702  0.37628712  0.87125019     0.10700
S655        S  0.90498767  0.33667800  0.96571373    -0.32600
S656        S  0.04933171  0.39244843  0.83615605    -0.32700
H657        H  0.05290199  0.42970012  0.82653156     0.28700
H658        H  0.90261692  0.30035191  0.97729248     0.28700
H659        H  0.92430102  0.38278088  0.89252222     0.19300
H660        H  0.02942987  0.34530374  0.90870372     0.19300
C661        C  0.23928353  0.98313235  0.99387214    -0.06500
C662        C  0.21026457  0.95482668  0.96695387    -0.17600
C663        C  0.17302719  0.95251858  0.96120691     0.10700
C664        C  0.16411224  0.97864994  0.98338738    -0.06400
C665        C  0.19324747  0.00530890  0.51318635    -0.17700
C666        C  0.23077338  0.00827518  0.51767995     0.10700
S667        S  0.13897698  0.91666489  0.92426448    -0.32600
S668        S  0.26736743  0.04843050  0.54950285    -0.32700
H669        H  0.30032545  0.05777702  0.52380697     0.28700
H670        H  0.12419065  0.94131770  0.91007485     0.28700
H671        H  0.21671711  0.93442039  0.95014317     0.19300
H672        H  0.18728186  0.02579138  0.53050771     0.19300
C673        C  0.35650634  0.98873652  0.92884618    -0.06500
C674        C  0.33724697  0.95598969  0.90187179    -0.17600
C675        C  0.35791462  0.95179600  0.86862218     0.10700
C676        C  0.39838169  0.98157139  0.86164765    -0.06400
C677        C  0.41708212  0.01487730  0.88785562    -0.17700
C678        C  0.39654004  0.01897077  0.92103456     0.10700
S679        S  0.33143205  0.90750236  0.83706802    -0.32600
S680        S  0.42260156  0.06417595  0.95123888    -0.32700
H681        H  0.38824956  0.06696106  0.95984311     0.28700
H682        H  0.36533012  0.90515323  0.82533718     0.28700
H683        H  0.30647379  0.93270840  0.90774321     0.19300
H684        H  0.44792564  0.03807092  0.88211615     0.19300
C685        C  0.39663961  0.99070253  0.64678188    -0.06500
C686        C  0.41265063  0.02500982  0.62181667    -0.17600
C687        C  0.39113768  0.02723155  0.58823995     0.10700
C688        C  0.35297196  0.99418056  0.57869796    -0.06400
C689        C  0.33580584  0.96090846  0.60514824    -0.17700
C690        C  0.35733198  0.95861321  0.63883566     0.10700
S691        S  0.41392912  0.07308919  0.55882810    -0.32600
S692        S  0.33370761  0.91320988  0.66909994    -0.32700
H693        H  0.36906445  0.91345543  0.68041220     0.28700
H694        H  0.37767163  0.06945668  0.54475727     0.28700
H695        H  0.44247848  0.04998619  0.62818276     0.19300
H696        H  0.30647103  0.93547288  0.59805417     0.19300
C697        C  0.72911280  0.97892591  0.50651140    -0.06500
C698        C  0.73065107  0.94821233  0.52827228    -0.17600
C699        C  0.76706994  0.94866775  0.53397615     0.10700
C700        C  0.80310236  0.98075244  0.51786292    -0.06400
C701        C  0.80150595  0.01178002  0.49676278    -0.17700
C702        C  0.76517939  0.01125080  0.49094256     0.10700
S703        S  0.76561747  0.90796751  0.56278519    -0.32600
S704        S  0.76918167  0.05494568  0.96495846    -0.32700
H705        H  0.73910805  0.05617747  0.98834840     0.28700
H706        H  0.80409438  0.93101801  0.58019590     0.28700
H707        H  0.70322019  0.92364604  0.54092719     0.19300
H708        H  0.82877255  0.03636569  0.48385085     0.19300
C709        C  0.62570635  0.98593253  0.92404073    -0.06500
C710        C  0.61078124  0.95350287  0.89651506    -0.17600
C711        C  0.58620361  0.95086863  0.86332664     0.10700
C712        C  0.57733540  0.98193234  0.85680735    -0.06400
C713        C  0.59396195  0.01519818  0.88321940    -0.17700
C714        C  0.61798592  0.01756854  0.91653986     0.10700
S715        S  0.56544851  0.90627767  0.83190484    -0.32600
S716        S  0.63728010  0.06143780  0.94896295    -0.32700
H717        H  0.67183727  0.06077939  0.96188039     0.28700
H718        H  0.52943757  0.90529727  0.82189800     0.28700
H719        H  0.61607488  0.92884459  0.90244810     0.19300
H720        H  0.58751169  0.03922670  0.87820891     0.19300
C721        C  0.57474758  0.98678230  0.64175459    -0.06500
C722        C  0.57929145  0.95310651  0.63627181    -0.17600
C723        C  0.59913618  0.94969609  0.60177137     0.10700
C724        C  0.61574339  0.98111775  0.57265719    -0.06400
C725        C  0.61171175  0.01499970  0.57851953    -0.17700
C726        C  0.59164998  0.01828376  0.61273141     0.10700
S727        S  0.59969052  0.90346534  0.59521563    -0.32600
S728        S  0.58751331  0.06279010  0.61692936    -0.32700
H729        H  0.58577143  0.06302315  0.66005100     0.28700
H730        H  0.59806513  0.90297114  0.55205058     0.28700
H731        H  0.56564136  0.92852363  0.65804684     0.19300
H732        H  0.62430748  0.03913871  0.55616610     0.19300
C733        C  0.80028584  0.79845084  0.98543679    -0.06500
C734        C  0.76809696  0.79532373  0.96207616    -0.17600
C735        C  0.72977114  0.76111802  0.96408571     0.10700
C736        C  0.72306119  0.72880249  0.98994870    -0.06400
C737        C  0.75486742  0.73071702  0.51289344    -0.17700
C738        C  0.79286544  0.76532602  0.51081286     0.10700
S739        S  0.69040949  0.76147495  0.93426459    -0.32600
S740        S  0.83064716  0.76759601  0.54527190    -0.32700
H741        H  0.84148518  0.80595318  0.56046846     0.28700
H742        H  0.66004454  0.74138569  0.96377574     0.28700
H743        H  0.77254462  0.82016129  0.94276211     0.19300
H744        H  0.75010340  0.70678757  0.53378779     0.19300
C745        C  0.60385330  0.61926536  0.92385837    -0.06500
C746        C  0.56472356  0.61255188  0.91927960    -0.17600
C747        C  0.54121833  0.59152454  0.88538260     0.10700
C748        C  0.55708467  0.57656490  0.85584423    -0.06400
C749        C  0.59643438  0.58378578  0.86000227    -0.17700
C750        C  0.62008485  0.60506087  0.89383364     0.10700
S751        S  0.49101002  0.58364541  0.87994293    -0.32600
S752        S  0.66948489  0.61109053  0.90004830    -0.32700
H753        H  0.67141481  0.59608395  0.86123184     0.28700
H754        H  0.49027422  0.60171852  0.91723568     0.28700
H755        H  0.55266833  0.62381471  0.94241394     0.19300
H756        H  0.60795308  0.57152016  0.83737872     0.19300
C757        C  0.60748351  0.62867099  0.57256323    -0.06500
C758        C  0.62727632  0.62052296  0.60404777    -0.17600
C759        C  0.60600171  0.59678799  0.63793722     0.10700
C760        C  0.56411856  0.58191392  0.64112142    -0.06400
C761        C  0.54515734  0.59277522  0.61112622    -0.17700
C762        C  0.56621589  0.61590705  0.57713103     0.10700
S763        S  0.63369770  0.58475043  0.67438402    -0.32600
S764        S  0.53840496  0.62756257  0.54039106    -0.32700
H765        H  0.57157205  0.66351572  0.52633963     0.28700
H766        H  0.60163614  0.54685683  0.68554292     0.28700
H767        H  0.65887085  0.63011018  0.60072562     0.19300
H768        H  0.51329337  0.58225833  0.61378623     0.19300
C769        C  0.23560359  0.23173311  0.50560629    -0.06500
C770        C  0.20454682  0.22818392  0.53119599    -0.17600
C771        C  0.17025543  0.19083558  0.53892303     0.10700
C772        C  0.16639520  0.15589597  0.52045571    -0.06400
C773        C  0.19506091  0.16352377  0.98963315    -0.17700
C774        C  0.22834082  0.20172044  0.98228156     0.10700
S775        S  0.13297780  0.18953866  0.57341830    -0.32600
S776        S  0.26615531  0.20532297  0.94708463    -0.32700
H777        H  0.29900703  0.23405817  0.97017116     0.28700
H778        H  0.12068505  0.15098002  0.58902793     0.28700
H779        H  0.20707724  0.25482300  0.54540704     0.19300
H780        H  0.19228515  0.13802655  0.97266285     0.19300
C781        C  0.37716184  0.39711264  0.85140823    -0.06500
C782        C  0.36387162  0.41485994  0.88030812    -0.17600
C783        C  0.34001888  0.39306899  0.91369114     0.10700
C784        C  0.32922055  0.35238648  0.91902556    -0.06400
C785        C  0.34037702  0.33380566  0.88881857    -0.17700
C786        C  0.36462389  0.35581672  0.85539713     0.10700
S787        S  0.32458584  0.41910938  0.94871357    -0.32600
S788        S  0.38044912  0.33012304  0.82042683    -0.32700
H789        H  0.41848694  0.36341829  0.81193212     0.28700
H790        H  0.28836522  0.38485708  0.96044024     0.28700
H791        H  0.37278016  0.44628717  0.87715328     0.19300
H792        H  0.33254591  0.30275326  0.89275890     0.19300
C793        C  0.38580251  0.40137020  0.63666435    -0.06500
C794        C  0.37612175  0.36109715  0.63474110    -0.17600
C795        C  0.35519280  0.33695213  0.60116977     0.10700
C796        C  0.34361101  0.35344648  0.56877625    -0.06400
C797        C  0.35253049  0.39346220  0.57124950    -0.17700
C798        C  0.37283560  0.41734708  0.60508483     0.10700
S799        S  0.34634136  0.28629720  0.60056944    -0.32600
S800        S  0.38147333  0.46794938  0.60605467    -0.32700
H801        H  0.38166812  0.47140815  0.64905920     0.28700
H802        H  0.35293510  0.28544099  0.55818253     0.28700
H803        H  0.38614109  0.34884179  0.65895137     0.19300
H804        H  0.34317500  0.40608954  0.54679978     0.19300
loop_ 
_geom_bond_atom_site_label_1 
_geom_bond_atom_site_label_2 
_geom_bond_distance 
_geom_bond_site_symmetry_2 
_ccdc_geom_bond_type 
C1            N2   1.356   1_556  A
C1          N408   1.368       .  A
C1          C367   1.479   1_556  S
N2            C3   1.352       .  A
C3          N406   1.353   1_554  A
C3          C394   1.468       .  S
N4            C5   1.356       .  A
N4          C405   1.353       .  A
C5            N6   1.367       .  A
C5          C382   1.485       .  S
N6          C403   1.369       .  A
C7            N8   1.365   1_556  A
C7          N414   1.357       .  A
C7          C736   1.476       .  S
N8            C9   1.362       .  A
C9          N412   1.355   1_554  A
C9          C355   1.478       .  S
N10          C11   1.353       .  A
N10         C411   1.354       .  A
C11          N12   1.354       .  A
C11         C343   1.469       .  S
N12         C409   1.357       .  A
N13          C18   1.351       .  A
N13          C17   1.355       .  A
N13          H45   1.038       .  S
N14          C21   1.351       .  A
N14          C22   1.348       .  A
N15          C20   1.355       .  A
N15          C19   1.350       .  A
N15          H46   1.038       .  S
N16          C23   1.348       .  A
N16          C24   1.352       .  A
C17          C25   1.386       .  A
C17          C33   1.416       .  A
C18          C34   1.417       .  A
C18          C26   1.388       .  A
C19          C27   1.388       .  A
C19          C36   1.414       .  A
C20          C35   1.414       .  A
C20          C28   1.385       .  A
C21          C33   1.410       .  A
C21          C29   1.385       .  A
C22          C36   1.411       .  A
C22          C30   1.387       .  A
C23          C31   1.388       .  A
C23          C34   1.412       .  A
C24          C32   1.384       .  A
C24          C35   1.410       .  A
C25          C26   1.377       .  A
C25          H37   1.083       .  S
C26          H38   1.082       .  S
C27          C28   1.374       .  A
C27          H39   1.082       .  S
C28          H40   1.082       .  S
C29          C30   1.375       .  A
C29          H41   1.082       .  S
C30          H42   1.082       .  S
C31          C32   1.374       .  A
C31          H43   1.082       .  S
C32          H44   1.082       .  S
C33         C358   1.494       .  S
C34         C391   1.480       .  S
C35         C379   1.496       .  S
C36         C346   1.480       .  S
C47          N52   1.359       .  A
C47         N450   1.365   1_554  A
C47         C295   1.477       .  S
N48          C49   1.362       .  A
N48         C449   1.366       .  A
C49         N452   1.355       .  A
C49         C307   1.478       .  S
N50          C51   1.353   1_556  A
N50         C451   1.355       .  A
C51          N52   1.356       .  A
C51         C322   1.468       .  S
C53          N54   1.364   1_556  A
C53         N460   1.357       .  A
C53         C661   1.477       .  S
N54          C55   1.361       .  A
C55          N56   1.356       .  A
C55         C286   1.475       .  S
N56         C459   1.356   1_554  A
C57          N58   1.356       .  A
C57         N458   1.358       .  A
C57         C271   1.476       .  S
N58         C455   1.359       .  A
N59          C64   1.352       .  A
N59          C63   1.354       .  A
N59          H91   1.035       .  S
N60          C67   1.352       .  A
N60          C68   1.350       .  A
N61          C66   1.354       .  A
N61          C65   1.354       .  A
N61          H92   1.036   1_565  S
N62          C69   1.352       .  A
N62          C70   1.352       .  A
C63          C71   1.387       .  A
C63          C79   1.418       .  A
C64          C80   1.418       .  A
C64          C72   1.388       .  A
C65          C73   1.388       .  A
C65          C82   1.419       .  A
C66          C81   1.418       .  A
C66          C74   1.387       .  A
C67          C79   1.414       .  A
C67          C75   1.386   1_565  A
C68          C82   1.413       .  A
C68          C76   1.386   1_565  A
C69          C77   1.387       .  A
C69          C80   1.416       .  A
C70          C78   1.385   1_565  A
C70          C81   1.415       .  A
C71          C72   1.375       .  A
C71          H83   1.082       .  S
C72          H84   1.082       .  S
C73          C74   1.374       .  A
C73          H85   1.082       .  S
C74          H86   1.082       .  S
C75          C76   1.374       .  A
C75          H87   1.082       .  S
C76          H88   1.082       .  S
C77          C78   1.374   1_565  A
C77          H89   1.082   1_565  S
C78          H90   1.082       .  S
C79         C310   1.492       .  S
C80         C274   1.489       .  S
C81         C283   1.492       .  S
C82         C319   1.486       .  S
C93          N98   1.366       .  A
C93         N496   1.356   1_554  A
C93         C628   1.472   1_554  S
N94          C95   1.353       .  A
N94         C495   1.356       .  A
C95         N498   1.353       .  A
C95         C250   1.468       .  S
N96          C97   1.356       .  A
N96         C497   1.352   1_554  A
C97          N98   1.364       .  A
C97         C235   1.478       .  S
C99         N100   1.363       .  A
C99         N506   1.366   1_554  A
C99         C187   1.487       .  S
N100        C101   1.360       .  A
C101        N102   1.354       .  A
C101        C214   1.476       .  S
N102        C505   1.355   1_554  A
C103        N104   1.361       .  A
C103        N504   1.354       .  A
C103        C199   1.483       .  S
N104        C501   1.366       .  A
N105        C110   1.353       .  A
N105        C109   1.352       .  A
N105        H137   1.039       .  S
N106        C113   1.347       .  A
N106        C114   1.349       .  A
N107        C112   1.352       .  A
N107        C111   1.354       .  A
N107        H138   1.039       .  S
N108        C115   1.352       .  A
N108        C116   1.350       .  A
C109        C117   1.387   1_655  A
C109        C125   1.414       .  A
C110        C126   1.416       .  A
C110        C118   1.387   1_655  A
C111        C119   1.386   1_655  A
C111        C128   1.415       .  A
C112        C127   1.414       .  A
C112        C120   1.387   1_655  A
C113        C125   1.409       .  A
C113        C121   1.387       .  A
C114        C128   1.407       .  A
C114        C122   1.385       .  A
C115        C123   1.386       .  A
C115        C126   1.413       .  A
C116        C124   1.386       .  A
C116        C127   1.412       .  A
C117        C118   1.376       .  A
C117        H129   1.082       .  S
C118        H130   1.082       .  S
C119        C120   1.376       .  A
C119        H131   1.082       .  S
C120        H132   1.082       .  S
C121        C122   1.376       .  A
C121        H133   1.082       .  S
C122        H134   1.082       .  S
C123        C124   1.376       .  A
C123        H135   1.082       .  S
C124        H136   1.082       .  S
C125        C247   1.482       .  S
C126        C202   1.496       .  S
C127        C211   1.487       .  S
C128        C238   1.488       .  S
O139       Mg141   2.149       .  S
O139       Mg549   2.149       .  S
O139        C174   1.235       .  S
C140        H179   1.081       .  S
C140        O153   1.235       .  S
C140        O177   1.271   1_455  A
Mg141       O572   2.161       .  S
Mg141       O181   2.257       .  S
Mg141       O152   2.302   1_455  S
Mg141       O587   2.310       .  S
O142       Mg167   2.159   1_655  S
O142       Mg586   2.154       .  S
O142        C163   1.236       .  S
O143        C174   1.270   1_565  A
O143       Mg167   2.306       .  S
C144        C298   1.482       .  S
C144        O146   1.271   1_565  A
C144        O158   1.275       .  A
O145        C173   1.271       .  A
O145       Mg147   2.308       .  S
O146       Mg178   2.261       .  S
Mg147       O153   2.162   1_545  S
Mg147       O541   2.144   1_554  S
Mg147       O161   2.278       .  S
Mg147       O551   2.282   1_554  S
C148        C331   1.487       .  S
C148        O186   1.273       .  A
C148        O154   1.273       .  A
O149        C156   1.272   1_545  A
O149       Mg549   2.283       .  S
H150        C163   1.081       .  S
C151        H176   1.081       .  S
C151        O165   1.234       .  S
C151        O166   1.270       .  A
O152        C175   1.270       .  A
O153       Mg569   2.158   1_554  S
O154       Mg586   2.304       .  S
C155        C190   1.487       .  S
C155        O168   1.273       .  A
C155        O160   1.276   1_655  A
C156        C262   1.486       .  S
C156        O183   1.272       .  A
Mg157       O164   2.159       .  S
Mg157       O567   2.155       .  S
Mg157       O159   2.307       .  S
Mg157       O186   2.272       .  S
Mg157       O560   2.316       .  S
O158       Mg559   2.311   1_554  S
O159        C163   1.271       .  A
O160       Mg569   2.320   1_554  S
O161        C180   1.271       .  A
O162        C182   1.274       .  A
O162       Mg580   2.301       .  S
O164       Mg580   2.160   1_565  S
O164        C175   1.235   1_565  S
O165       Mg184   2.164       .  S
O165       Mg559   2.158   1_554  S
O166       Mg178   2.305   1_565  S
Mg167       O555   2.160       .  S
Mg167       O183   2.276       .  S
Mg167       O562   2.318       .  S
O168       Mg184   2.278       .  S
H169        C174   1.081       .  S
O170       Mg178   2.150   1_455  S
O170       Mg543   2.156   1_554  S
O170        C173   1.235       .  S
H171        C173   1.081       .  S
H172        C175   1.081       .  S
O177       Mg184   2.308       .  S
Mg178       O566   2.159   1_544  S
Mg178       O564   2.307   1_554  S
C180        C370   1.478       .  S
C180        O185   1.271       .  A
O181        C182   1.271   1_455  A
C182        C223   1.481       .  S
Mg184       O544   2.148   1_554  S
Mg184       O556   2.305   1_554  S
O185       Mg543   2.294   1_554  S
C187        C192   1.417   1_655  A
C187        C590   1.403   1_554  A
C188        C189   1.400       .  A
C188        C589   1.402       .  A
C188        H197   1.084       .  S
C189        C592   1.417       .  A
C189        S193   1.803       .  S
C190        C191   1.405   1_655  A
C190        C591   1.417   1_554  A
C191        C192   1.406       .  A
C191        H198   1.084       .  S
C192        S194   1.802       .  S
S193        H196   1.407       .  S
S194        H195   1.406       .  S
C199        C200   1.404       .  A
C199        C204   1.413   1_655  A
C200        C201   1.397       .  A
C200        H209   1.084       .  S
C201        C202   1.415       .  A
C201        S205   1.805       .  S
C202        C203   1.406   1_655  A
C203        C204   1.405       .  A
C203        H210   1.084       .  S
C204        S206   1.798       .  S
S205        H208   1.406       .  S
S206        H207   1.406       .  S
C211        C212   1.404   1_655  A
C211        C216   1.413       .  A
C212        C213   1.401       .  A
C212        H221   1.084       .  S
C213        C214   1.412   1_455  A
C213        S217   1.801       .  S
C214        C215   1.404       .  A
C215        C216   1.398       .  A
C215        H222   1.084       .  S
C216        S218   1.805       .  S
S217        H220   1.406       .  S
S218        H219   1.405       .  S
C223        C228   1.414       .  A
C223        C626   1.408   1_655  A
C224        C225   1.400       .  A
C224        C625   1.408   1_454  A
C224        H233   1.084       .  S
C225        C628   1.409   1_454  A
C225        S229   1.803       .  S
C226        C495   1.472       .  S
C226        C227   1.403       .  A
C226        C627   1.409   1_655  A
C227        C228   1.400       .  A
C227        H234   1.084       .  S
C228        S230   1.804       .  S
S229        H232   1.406       .  S
S230        H231   1.407       .  S
C235        C236   1.404       .  A
C235        C240   1.414   1_655  A
C236        C237   1.395       .  A
C236        H245   1.084       .  S
C237        C238   1.410       .  A
C237        S241   1.804       .  S
C238        C239   1.406   1_655  A
C239        C240   1.405       .  A
C239        H246   1.084       .  S
C240        S242   1.802       .  S
S241        H244   1.406       .  S
S242        H243   1.406       .  S
C247        C248   1.402       .  A
C247        C252   1.412   1_655  A
C248        C249   1.397       .  A
C248        H257   1.084       .  S
C249        C250   1.412       .  A
C249        S253   1.804       .  S
C250        C251   1.402   1_655  A
C251        C252   1.398       .  A
C251        H258   1.084       .  S
C252        S254   1.803       .  S
S253        H256   1.407       .  S
S254        H255   1.406       .  S
C259        C455   1.478       .  S
C259        C260   1.405       .  A
C259        C666   1.412   1_565  A
C260        C261   1.402       .  A
C260        H269   1.084       .  S
C261        C262   1.414       .  A
C261        S265   1.801       .  S
C262        C665   1.408   1_565  A
C263        C264   1.396       .  A
C263        C664   1.407   1_544  A
C263        H270   1.084       .  S
C264        C661   1.411   1_544  A
C264        S266   1.804       .  S
S265        H268   1.408       .  S
S266        H267   1.407       .  S
C271        C272   1.405       .  A
C271        C276   1.412   1_565  A
C272        C273   1.403       .  A
C272        H281   1.084       .  S
C273        C274   1.414       .  A
C273        S277   1.804       .  S
C274        C275   1.401   1_565  A
C275        C276   1.396       .  A
C275        H282   1.084       .  S
C276        S278   1.801       .  S
S277        H280   1.405       .  S
S278        H279   1.407       .  S
C283        C284   1.403   1_565  A
C283        C288   1.414       .  A
C284        C285   1.400       .  A
C284        H293   1.084       .  S
C285        C286   1.412   1_545  A
C285        S289   1.802       .  S
C286        C287   1.402       .  A
C287        C288   1.402       .  A
C287        H294   1.084       .  S
C288        S290   1.803       .  S
S289        H292   1.407       .  S
S290        H291   1.406       .  S
C295        C296   1.404       .  A
C295        C300   1.412   1_564  A
C296        C297   1.403       .  A
C296        H305   1.084       .  S
C297        C298   1.414       .  A
C297        S301   1.803       .  S
C298        C299   1.406   1_564  A
C299        C300   1.400       .  A
C299        H306   1.084       .  S
C300        S704   1.804       .  S
S301        H304   1.407       .  S
S302        C702   1.804       .  S
S302        H303   1.406       .  S
C307        C308   1.403       .  A
C307        C312   1.413   1_565  A
C308        C309   1.405       .  A
C308        H317   1.084       .  S
C309        C310   1.415       .  A
C309        S313   1.804       .  S
C310        C311   1.402   1_565  A
C311        C312   1.399       .  A
C311        H318   1.084       .  S
C312        S314   1.804       .  S
S313        H316   1.405       .  S
S314        H315   1.407       .  S
C319        C320   1.404       .  A
C319        C324   1.412   1_565  A
C320        C321   1.400       .  A
C320        H329   1.084       .  S
C321        C322   1.411       .  A
C321        S325   1.805       .  S
C322        C323   1.402   1_565  A
C323        C324   1.397       .  A
C323        H330   1.084       .  S
C324        S326   1.804       .  S
S325        H328   1.405       .  S
S326        H327   1.405       .  S
C331        C332   1.405       .  A
C331        C738   1.421       .  A
C332        C333   1.401       .  A
C332        H341   1.084       .  S
C333        C334   1.415       .  A
C333        S337   1.804       .  S
C334        C409   1.476       .  S
C334        C737   1.399       .  A
C335        C336   1.400       .  A
C335        C736   1.399   1_554  A
C335        H342   1.084       .  S
C336        C733   1.421   1_554  A
C336        S338   1.802       .  S
S337        H340   1.407       .  S
S338        H339   1.407       .  S
C343        C344   1.402       .  A
C343        C348   1.411       .  A
C344        C345   1.396       .  A
C344        H353   1.083       .  S
C345        C346   1.409       .  A
C345        S349   1.808       .  S
C346        C347   1.402       .  A
C347        C348   1.401       .  A
C347        H354   1.083       .  S
C348        S350   1.807       .  S
S349        H352   1.407       .  S
S350        H351   1.407       .  S
C355        C356   1.403       .  A
C355        C360   1.414       .  A
C356        C357   1.405       .  A
C356        H365   1.084       .  S
C357        C358   1.416       .  A
C357        S361   1.802       .  S
C358        C359   1.402       .  A
C359        C360   1.398       .  A
C359        H366   1.084       .  S
C360        S362   1.805       .  S
S361        H364   1.406       .  S
S362        H363   1.407       .  S
C367        C368   1.406       .  A
C367        C774   1.411   1_554  A
C368        C369   1.400       .  A
C368        H377   1.084       .  S
C369        C370   1.411       .  A
C369        S373   1.804       .  S
C370        C773   1.406   1_554  A
C371        C372   1.404       .  A
C371        C772   1.408       .  A
C371        H378   1.084       .  S
C372        C769   1.411       .  A
C372        S374   1.803       .  S
S373        H376   1.407       .  S
S374        H375   1.406       .  S
C379        C380   1.401       .  A
C379        C384   1.416       .  A
C380        C381   1.399       .  A
C380        H389   1.084       .  S
C381        C382   1.417       .  A
C381        S385   1.805       .  S
C382        C383   1.405       .  A
C383        C384   1.408       .  A
C383        H390   1.084       .  S
C384        S386   1.803       .  S
S385        H388   1.407       .  S
S386        H387   1.406       .  S
C391        C392   1.401       .  A
C391        C396   1.411       .  A
C392        C393   1.397       .  A
C392        H401   1.084       .  S
C393        C394   1.414       .  A
C393        S397   1.803       .  S
C394        C395   1.402       .  A
C395        C396   1.396       .  A
C395        H402   1.084       .  S
C396        S398   1.804       .  S
S397        H400   1.407       .  S
S398        H399   1.406       .  S
C403        N404   1.357       .  A
C403        C769   1.480       .  S
N404        C405   1.353       .  A
C405        C796   1.470       .  S
N406        C407   1.356       .  A
C407        N408   1.365       .  A
C407        C784   1.482       .  S
C409        N410   1.365       .  A
N410        C411   1.362       .  A
C411        C757   1.478       .  S
N412        C413   1.353       .  A
C413        N414   1.354       .  A
C413        C745   1.467       .  S
N415        C420   1.351       .  A
N415        C419   1.354       .  A
N415        H447   1.038       .  S
N416        C423   1.351       .  A
N416        C424   1.347       .  A
N417        C422   1.355       .  A
N417        C421   1.351       .  A
N417        H448   1.039       .  S
N418        C425   1.348       .  A
N418        C426   1.352       .  A
C419        C427   1.387       .  A
C419        C435   1.416       .  A
C420        C436   1.415       .  A
C420        C428   1.388       .  A
C421        C429   1.388       .  A
C421        C438   1.414       .  A
C422        C437   1.415       .  A
C422        C430   1.386       .  A
C423        C435   1.410       .  A
C423        C431   1.385       .  A
C424        C438   1.409       .  A
C424        C432   1.387       .  A
C425        C433   1.387       .  A
C425        C436   1.411       .  A
C426        C434   1.384       .  A
C426        C437   1.410       .  A
C427        C428   1.376       .  A
C427        H439   1.082       .  S
C428        H440   1.082       .  S
C429        C430   1.375       .  A
C429        H441   1.082       .  S
C430        H442   1.082       .  S
C431        C432   1.375       .  A
C431        H443   1.082       .  S
C432        H444   1.082       .  S
C433        C434   1.374       .  A
C433        H445   1.082       .  S
C434        H446   1.082       .  S
C435        C760   1.493       .  S
C436        C793   1.482       .  S
C437        C781   1.495       .  S
C438        C748   1.479       .  S
C449        N454   1.360       .  A
C449        C697   1.480       .  S
N450        C451   1.362       .  A
C451        C709   1.476       .  S
N452        C453   1.354       .  A
C453        N454   1.357       .  A
C453        C724   1.471       .  S
C455        N456   1.363       .  A
N456        C457   1.360       .  A
C457        N458   1.358       .  A
C457        C688   1.477       .  S
C459        N460   1.355       .  A
C459        C673   1.469       .  S
N461        C466   1.352       .  A
N461        C465   1.354       .  A
N461        H493   1.036       .  S
N462        C469   1.352       .  A
N462        C470   1.350       .  A
N463        C468   1.355       .  A
N463        C467   1.353       .  A
N463        H494   1.037   1_565  S
N464        C471   1.349       .  A
N464        C472   1.351       .  A
C465        C473   1.387       .  A
C465        C481   1.416       .  A
C466        C482   1.416       .  A
C466        C474   1.388       .  A
C467        C475   1.388       .  A
C467        C484   1.417       .  A
C468        C483   1.416       .  A
C468        C476   1.386       .  A
C469        C481   1.412       .  A
C469        C477   1.385       .  A
C470        C484   1.413       .  A
C470        C478   1.386   1_565  A
C471        C479   1.387       .  A
C471        C482   1.413       .  A
C472        C480   1.385   1_565  A
C472        C483   1.411       .  A
C473        C474   1.376       .  A
C473        H485   1.082       .  S
C474        H486   1.083       .  S
C475        C476   1.374       .  A
C475        H487   1.082       .  S
C476        H488   1.082       .  S
C477        C478   1.375   1_565  A
C477        H489   1.082   1_565  S
C478        H490   1.082       .  S
C479        C480   1.374   1_565  A
C479        H491   1.082   1_565  S
C480        H492   1.082       .  S
C481        C712   1.491       .  S
C482        C676   1.482       .  S
C483        C685   1.490       .  S
C484        C721   1.487       .  S
C495        N500   1.365       .  A
N496        C497   1.353       .  A
C497        C652   1.467       .  S
N498        C499   1.356       .  A
C499        N500   1.364       .  A
C499        C637   1.480       .  S
C501        N502   1.362       .  A
C501        C589   1.484       .  S
N502        C503   1.360       .  A
C503        N504   1.354       .  A
C503        C616   1.475       .  S
C505        N506   1.362       .  A
C505        C601   1.487       .  S
N507        C512   1.354       .  A
N507        C511   1.352       .  A
N507        H539   1.039       .  S
N508        C515   1.348       .  A
N508        C516   1.350       .  A
N509        C514   1.352       .  A
N509        C513   1.354       .  A
N509        H540   1.038       .  S
N510        C517   1.353       .  A
N510        C518   1.350       .  A
C511        C519   1.388   1_655  A
C511        C527   1.414       .  A
C512        C528   1.416       .  A
C512        C520   1.386   1_655  A
C513        C521   1.386   1_655  A
C513        C530   1.416       .  A
C514        C529   1.416       .  A
C514        C522   1.388   1_655  A
C515        C527   1.410       .  A
C515        C523   1.387       .  A
C516        C530   1.409       .  A
C516        C524   1.385       .  A
C517        C525   1.385       .  A
C517        C528   1.413       .  A
C518        C526   1.387       .  A
C518        C529   1.413       .  A
C519        C520   1.376       .  A
C519        H531   1.082       .  S
C520        H532   1.082       .  S
C521        C522   1.376       .  A
C521        H533   1.082       .  S
C522        H534   1.082       .  S
C523        C524   1.375       .  A
C523        H535   1.082       .  S
C524        H536   1.082       .  S
C525        C526   1.375       .  A
C525        H537   1.082       .  S
C526        H538   1.082       .  S
C527        C649   1.481       .  S
C528        C604   1.499       .  S
C529        C613   1.487       .  S
C530        C640   1.490       .  S
O541       Mg543   2.151       .  S
O541        C576   1.235       .  S
C542        H581   1.081       .  S
C542        O555   1.235       .  S
C542        O579   1.270   1_455  A
Mg543       O583   2.253       .  S
Mg543       O554   2.299   1_455  S
O544       Mg569   2.153   1_655  S
O544        C565   1.235       .  S
O545        C576   1.271   1_565  A
O545       Mg569   2.306       .  S
C546        C700   1.485       .  S
C546        O548   1.273   1_565  A
C546        O560   1.275       .  A
O547        C575   1.270       .  A
O547       Mg549   2.304       .  S
O548       Mg580   2.272       .  S
Mg549       O555   2.162   1_545  S
Mg549       O563   2.275       .  S
C550        C733   1.487       .  S
C550        O588   1.272       .  A
C550        O556   1.274       .  A
O551        C558   1.272   1_545  A
H552        C565   1.081       .  S
C553        H578   1.081       .  S
C553        O567   1.235       .  S
C553        O568   1.270       .  A
O554        C577   1.269       .  A
C557        C592   1.487       .  S
C557        O570   1.273       .  A
C557        O562   1.276   1_655  A
C558        C664   1.483       .  S
C558        O585   1.271       .  A
Mg559       O566   2.156       .  S
Mg559       O561   2.304       .  S
Mg559       O588   2.263       .  S
O561        C565   1.270       .  A
O563        C582   1.271       .  A
O564        C584   1.274       .  A
O566        C577   1.234   1_565  S
O567       Mg586   2.162       .  S
O568       Mg580   2.303   1_565  S
Mg569       O585   2.271       .  S
O570       Mg586   2.276       .  S
H571        C576   1.081       .  S
O572       Mg580   2.157   1_455  S
O572        C575   1.235       .  S
H573        C575   1.081       .  S
H574        C577   1.081       .  S
O579       Mg586   2.305       .  S
C582        C772   1.483       .  S
C582        O587   1.274       .  A
O583        C584   1.270   1_455  A
C584        C625   1.481       .  S
C589        C594   1.416   1_655  A
C590        C591   1.401       .  A
C590        H599   1.084       .  S
C591        S595   1.804       .  S
C592        C593   1.406   1_655  A
C593        C594   1.406       .  A
C593        H600   1.084       .  S
C594        S596   1.802       .  S
S595        H598   1.407       .  S
S596        H597   1.406       .  S
C601        C602   1.405       .  A
C601        C606   1.414   1_655  A
C602        C603   1.399       .  A
C602        H611   1.084       .  S
C603        C604   1.415       .  A
C603        S607   1.805       .  S
C604        C605   1.407   1_655  A
C605        C606   1.406       .  A
C605        H612   1.084       .  S
C606        S608   1.798       .  S
S607        H610   1.406       .  S
S608        H609   1.407       .  S
C613        C614   1.404   1_655  A
C613        C618   1.412       .  A
C614        C615   1.401       .  A
C614        H623   1.084       .  S
C615        C616   1.412   1_455  A
C615        S619   1.801       .  S
C616        C617   1.404       .  A
C617        C618   1.397       .  A
C617        H624   1.084       .  S
C618        S620   1.805       .  S
S619        H622   1.406       .  S
S620        H621   1.406       .  S
C625        C630   1.414       .  A
C626        C627   1.400       .  A
C626        H635   1.084       .  S
C627        S631   1.803       .  S
C628        C629   1.404       .  A
C629        C630   1.401       .  A
C629        H636   1.084       .  S
C630        S632   1.804       .  S
S631        H634   1.406       .  S
S632        H633   1.407       .  S
C637        C638   1.404       .  A
C637        C642   1.415   1_655  A
C638        C639   1.396       .  A
C638        H647   1.084       .  S
C639        C640   1.411       .  A
C639        S643   1.805       .  S
C640        C641   1.406   1_655  A
C641        C642   1.406       .  A
C641        H648   1.084       .  S
C642        S644   1.801       .  S
S643        H646   1.406       .  S
S644        H645   1.406       .  S
C649        C650   1.402       .  A
C649        C654   1.412   1_655  A
C650        C651   1.396       .  A
C650        H659   1.084       .  S
C651        C652   1.412       .  A
C651        S655   1.805       .  S
C652        C653   1.402   1_655  A
C653        C654   1.397       .  A
C653        H660   1.084       .  S
C654        S656   1.804       .  S
S655        H658   1.407       .  S
S656        H657   1.406       .  S
C661        C662   1.406       .  A
C662        C663   1.403       .  A
C662        H671   1.084       .  S
C663        C664   1.414       .  A
C663        S667   1.802       .  S
C665        C666   1.398       .  A
C665        H672   1.084       .  S
C666        S668   1.804       .  S
S667        H670   1.407       .  S
S668        H669   1.407       .  S
C673        C674   1.404       .  A
C673        C678   1.411   1_565  A
C674        C675   1.400       .  A
C674        H683   1.084       .  S
C675        C676   1.413       .  A
C675        S679   1.804       .  S
C676        C677   1.401   1_565  A
C677        C678   1.394       .  A
C677        H684   1.084       .  S
C678        S680   1.802       .  S
S679        H682   1.405       .  S
S680        H681   1.407       .  S
C685        C686   1.403   1_565  A
C685        C690   1.415       .  A
C686        C687   1.399       .  A
C686        H695   1.084       .  S
C687        C688   1.412   1_545  A
C687        S691   1.802       .  S
C688        C689   1.403       .  A
C689        C690   1.403       .  A
C689        H696   1.084       .  S
C690        S692   1.804       .  S
S691        H694   1.407       .  S
S692        H693   1.405       .  S
C697        C698   1.405       .  A
C697        C702   1.413   1_565  A
C698        C699   1.405       .  A
C698        H707   1.084       .  S
C699        C700   1.415       .  A
C699        S703   1.803       .  S
C700        C701   1.406   1_565  A
C701        C702   1.400       .  A
C701        H708   1.084       .  S
S703        H706   1.407       .  S
S704        H705   1.406       .  S
C709        C710   1.404       .  A
C709        C714   1.413   1_565  A
C710        C711   1.405       .  A
C710        H719   1.084       .  S
C711        C712   1.415       .  A
C711        S715   1.803       .  S
C712        C713   1.402   1_565  A
C713        C714   1.398       .  A
C713        H720   1.084       .  S
C714        S716   1.805       .  S
S715        H718   1.405       .  S
S716        H717   1.407       .  S
C721        C722   1.404       .  A
C721        C726   1.412   1_565  A
C722        C723   1.401       .  A
C722        H731   1.084       .  S
C723        C724   1.412       .  A
C723        S727   1.804       .  S
C724        C725   1.402   1_565  A
C725        C726   1.397       .  A
C725        H732   1.084       .  S
C726        S728   1.804       .  S
S727        H730   1.406       .  S
S728        H729   1.406       .  S
C733        C734   1.406       .  A
C734        C735   1.400       .  A
C734        H743   1.084       .  S
C735        C736   1.414       .  A
C735        S739   1.804       .  S
C737        C738   1.400       .  A
C737        H744   1.084       .  S
C738        S740   1.803       .  S
S739        H742   1.407       .  S
S740        H741   1.407       .  S
C745        C746   1.402       .  A
C745        C750   1.410       .  A
C746        C747   1.398       .  A
C746        H755   1.083       .  S
C747        C748   1.408       .  A
C747        S751   1.807       .  S
C748        C749   1.402       .  A
C749        C750   1.401       .  A
C749        H756   1.083       .  S
C750        S752   1.807       .  S
S751        H754   1.407       .  S
S752        H753   1.407       .  S
C757        C758   1.403       .  A
C757        C762   1.414       .  A
C758        C759   1.404       .  A
C758        H767   1.084       .  S
C759        C760   1.417       .  A
C759        S763   1.804       .  S
C760        C761   1.402       .  A
C761        C762   1.396       .  A
C761        H768   1.084       .  S
C762        S764   1.805       .  S
S763        H766   1.405       .  S
S764        H765   1.407       .  S
C769        C770   1.406       .  A
C770        C771   1.402       .  A
C770        H779   1.084       .  S
C771        C772   1.412       .  A
C771        S775   1.803       .  S
C773        C774   1.402       .  A
C773        H780   1.084       .  S
C774        S776   1.802       .  S
S775        H778   1.407       .  S
S776        H777   1.407       .  S
C781        C782   1.402       .  A
C781        C786   1.417       .  A
C782        C783   1.398       .  A
C782        H791   1.084       .  S
C783        C784   1.415       .  A
C783        S787   1.805       .  S
C784        C785   1.404       .  A
C785        C786   1.407       .  A
C785        H792   1.084       .  S
C786        S788   1.803       .  S
S787        H790   1.407       .  S
S788        H789   1.406       .  S
C793        C794   1.402       .  A
C793        C798   1.411       .  A
C794        C795   1.398       .  A
C794        H803   1.084       .  S
C795        C796   1.413       .  A
C795        S799   1.803       .  S
C796        C797   1.402       .  A
C797        C798   1.395       .  A
C797        H804   1.084       .  S
C798        S800   1.805       .  S
S799        H802   1.406       .  S
S800        H801   1.406       .  S
