geometry optimzed in LAMMPS
_audit_creation_date              2020-11-30 
_audit_creation_method            'lammps2cif' 
_symmetry_space_group_name_H-M    'P1' 
_symmetry_Int_Tables_number       1 
_symmetry_cell_setting            triclinic 
loop_ 
_symmetry_equiv_pos_as_xyz 
  x,y,z 
_cell_length_a                    46.59639993 
_cell_length_b                    47.147028081752346 
_cell_length_c                    42.11678860850592 
_cell_angle_alpha                 90.80808708378461 
_cell_angle_beta                  89.22848576082511 
_cell_angle_gamma                 119.71691455651195 
loop_ 
_atom_site_label 
_atom_site_type_symbol 
_atom_site_fract_x 
_atom_site_fract_y 
_atom_site_fract_z 
_atom_site_charge 
O1          O  0.27808567  0.10811837  0.22786809    -0.85700
O2          O  0.34081855  0.12558557  0.20854269    -0.82700
C3          C  0.37101440  0.14475437  0.20328455     0.97800
O4          O  0.38827209  0.16805191  0.22220715    -0.82800
O5          O  0.37090000  0.21475759  0.21246662    -0.85400
C6          C  0.35126127  0.22577949  0.21060959     1.02300
O7          O  0.32772712  0.21729884  0.23034511    -0.78200
O8          O  0.28116670  0.15454818  0.21515148    -0.78400
C9          C  0.26927545  0.12432362  0.21071493     1.02200
O10         O  0.29968183  0.11499394  0.29325031    -0.85700
O11         O  0.36073621  0.12588859  0.27280826    -0.82800
C12         C  0.38081604  0.14795237  0.29140013     0.97800
O13         O  0.38458865  0.17634353  0.29013025    -0.82800
O14         O  0.37186515  0.22670072  0.27953629    -0.85400
C15         C  0.34953541  0.22298563  0.29921568     1.02300
O16         O  0.32069135  0.19907025  0.29645218    -0.78200
O17         O  0.27032583  0.13788509  0.28117069    -0.78400
C18         C  0.27563967  0.11956532  0.29888113     1.02200
Cr19       Cr  0.32069211  0.12198672  0.25082909     1.93700
Cr20       Cr  0.37553380  0.19400000  0.25125378     1.93200
Cr21       Cr  0.30252560  0.17630913  0.25555299     1.39100
O22         O  0.33294626  0.16417270  0.25213074    -1.23400
O23         O  0.10878328  0.27731279  0.27070871    -0.85700
O24         O  0.12434266  0.33985884  0.28842539    -0.82700
C25         C  0.14308542  0.37016471  0.29245398     0.97800
O26         O  0.16712341  0.38623271  0.27371230    -0.82800
O27         O  0.21403917  0.36773565  0.28203306    -0.85400
C28         C  0.22830452  0.35103765  0.27992361     1.02300
O29         O  0.21909783  0.32816992  0.25964212    -0.78200
O30         O  0.15690969  0.28059312  0.27930170    -0.78400
C31         C  0.12660611  0.26871530  0.28573000     1.02200
O32         O  0.11055898  0.29508985  0.20471220    -0.85700
O33         O  0.12227478  0.35587760  0.22370128    -0.82800
C34         C  0.14428902  0.37630846  0.20534209     0.97800
O35         O  0.17341597  0.38114639  0.20614651    -0.82800
O36         O  0.22489978  0.36925014  0.21436476    -0.85400
C37         C  0.22036379  0.34755065  0.19381175     1.02300
O38         O  0.19540454  0.31941052  0.19596524    -0.78200
O39         O  0.13545236  0.26744027  0.21510719    -0.78400
C40         C  0.11508136  0.27127926  0.19886862     1.02200
Cr41       Cr  0.11984746  0.31784249  0.24658692     1.93700
Cr42       Cr  0.19239755  0.37274244  0.24403827     1.93200
Cr43       Cr  0.17567647  0.30133702  0.23796278     1.39100
O44         O  0.16253282  0.33062878  0.24336978    -1.23400
C45         C  0.38058743  0.37335817  0.09419706     0.02800
C46         C  0.35310907  0.37733967  0.10222211    -0.13400
C47         C  0.32872483  0.35583810  0.12336726     0.00300
C48         C  0.33176514  0.33058919  0.13675186    -0.11900
C49         C  0.35828027  0.32564196  0.12917938     0.02800
C50         C  0.38287836  0.34731646  0.10802820    -0.11300
H51         H  0.34979873  0.39629460  0.09176007     0.08400
H52         H  0.31330630  0.31485953  0.15388644     0.05900
H53         H  0.40351937  0.34367991  0.10204231     0.05700
C54         C  0.38074496  0.38520079  0.39256273     0.02800
C55         C  0.35564613  0.38763362  0.37667612    -0.13400
C56         C  0.33357933  0.36228501  0.35688038     0.00300
C57         C  0.33566815  0.33385280  0.35394765    -0.11900
C58         C  0.36061296  0.33090973  0.36885653     0.02800
C59         C  0.38363371  0.35683657  0.38781480    -0.11300
H60         H  0.35375568  0.40957360  0.37906763     0.08400
H61         H  0.31848942  0.31426695  0.33856078     0.05900
H62         H  0.40356970  0.35474612  0.39823897     0.05700
C63         C  0.11922932  0.49997161  0.40196844     0.02800
C64         C  0.11341818  0.46872097  0.39122127    -0.13400
C65         C  0.13694405  0.46619043  0.37151646     0.00300
C66         C  0.16544193  0.49480624  0.36237833    -0.11900
C67         C  0.17653877  0.03139798  0.38388028     0.02800
C68         C  0.15267955  0.03348076  0.40274562    -0.11300
H69         H  0.09154217  0.44656675  0.39843377     0.08400
H70         H  0.18294425  0.49325006  0.34622101     0.05900
H71         H  0.15623505  0.05736908  0.40905603     0.05700
C72         C  0.10306017  0.50194334  0.11633782     0.02800
C73         C  0.13516621  0.03065526  0.11959342    -0.13400
C74         C  0.16057472  0.03212060  0.13857367     0.00300
C75         C  0.15317829  0.50409681  0.15402384    -0.11900
C76         C  0.12660572  0.47399065  0.14529181     0.02800
C77         C  0.10114858  0.47292452  0.12721712    -0.11300
H78         H  0.13711110  0.05311350  0.11113165     0.08400
H79         H  0.17215051  0.50461855  0.16907317     0.05900
H80         H  0.08057548  0.44940989  0.12041033     0.05700
C81         C  0.50055719  0.12512091  0.09504466     0.02800
C82         C  0.01839545  0.14703415  0.09770196    -0.13400
C83         C  0.01940771  0.17178633  0.11763533     0.00300
C84         C  0.49407640  0.17277014  0.12971551    -0.11900
C85         C  0.46563625  0.14410086  0.12056922     0.02800
C86         C  0.46887159  0.12010049  0.10339935    -0.11300
H87         H  0.04136409  0.14805581  0.09095363     0.08400
H88         H  0.49168048  0.19044997  0.14458840     0.05900
H89         H  0.44678682  0.09753517  0.09733785     0.05700
C90         C  0.51313588  0.11618213  0.38751462     0.02800
C91         C  0.03557249  0.13463871  0.37358151    -0.13400
C92         C  0.03498297  0.15894374  0.35529261     0.00300
C93         C  0.50954441  0.16337533  0.35018832    -0.11900
C94         C  0.48028162  0.13566589  0.35915977     0.02800
C95         C  0.48197789  0.11167941  0.37747093    -0.11300
H96         H  0.05917973  0.13745649  0.38048836     0.08400
H97         H  0.50827358  0.18129537  0.33526986     0.05900
H98         H  0.45906091  0.09026110  0.38395062     0.05700
O99         O  0.45601044  0.43230502  0.48085830    -0.85700
O100        O  0.02019324  0.46428731  0.46631594    -0.82700
C101        C  0.04792118  0.99177962  0.46427311     0.97800
O102        O  0.05574540  0.02007511  0.47501938    -0.82800
O103        O  0.01513112  0.04484221  0.45632565    -0.85400
C104        C  0.98918248  0.04665891  0.45313182     1.02300
O105        O  0.47001874  0.03179251  0.46693306    -0.78200
O106        O  0.44424561  0.46580602  0.45579796    -0.78400
C107        C  0.44235439  0.43818796  0.45803921     1.02200
O108        O  0.45462668  0.43597421  0.02323170    -0.85700
O109        O  0.02807697  0.48709138  0.04707897    -0.82800
C110        C  0.06047490  0.01030564  0.04220457     0.97800
O111        O  0.06811121  0.03036101  0.01983980    -0.82800
O112        O  0.02939682  0.05697465  0.03513284    -0.85400
C113        C  0.00452032  0.06050424  0.03852222     1.02300
O114        O  0.46580622  0.03929619  0.01580610    -0.78200
O115        O  0.43835224  0.47219853  0.03083341    -0.78400
C116        C  0.43610455  0.44504733  0.03712775     1.02200
Cr117      Cr  0.49945319  0.46259575  0.00227142     1.93700
Cr118      Cr  0.03855793  0.04122939  0.99503036     1.93200
Cr119      Cr  0.45982654  0.49830743  0.99246726     1.39100
O120        O  0.00231896  0.00270411  0.99899951    -1.23400
C121        C  0.98502943  0.06589564  0.42763962    -0.16800
C122        C  0.51688755  0.09294825  0.40914903    -0.32000
H123        H  0.46646743  0.06211277  0.41950880     0.12200
H124        H  0.03211854  0.08475209  0.40731089     0.12800
C125        C  0.00707191  0.08567446  0.06151424    -0.16800
C126        C  0.50527234  0.10077236  0.07622087    -0.32000
H127        H  0.45893243  0.07855938  0.05362362     0.12200
H128        H  0.96248975  0.08323122  0.04940815     0.12800
C129        C  0.07613339  0.49840283  0.09496848    -0.16800
C130        C  0.08571532  0.01677341  0.06643031    -0.32000
H131        H  0.05329729  0.47507065  0.09500210     0.12200
H132        H  0.10972867  0.03844778  0.06342943     0.12800
C133        C  0.09718732  0.50554728  0.42435598    -0.16800
C134        C  0.06978592  0.98637184  0.44185084    -0.32000
H135        H  0.10641362  0.53017969  0.43357825     0.12200
H136        H  0.06029437  0.96183690  0.43249026     0.12800
C137        C  0.40347029  0.41320211  0.41319090    -0.16800
C138        C  0.42288204  0.41133677  0.43540293    -0.32000
H139        H  0.40262956  0.43575908  0.41137244     0.12200
H140        H  0.42316512  0.38873515  0.43880866     0.12800
C141        C  0.40661970  0.39497621  0.07073891    -0.16800
C142        C  0.41067530  0.42384966  0.06067748    -0.32000
H143        H  0.42338484  0.38693514  0.06168077     0.12200
H144        H  0.39531370  0.43319970  0.07034420     0.12800
C145        C  0.10613137  0.39602471  0.18730329    -0.13700
C146        C  0.13659427  0.39661086  0.18460529     0.08500
C147        C  0.16113488  0.41943420  0.16442974    -0.13700
C148        C  0.15649336  0.44296520  0.14950166    -0.13700
C149        C  0.12731661  0.44427900  0.15453357     0.08500
C150        C  0.10152819  0.41978930  0.17233508    -0.13700
H151        H  0.08665058  0.37850965  0.20250782     0.12400
H152        H  0.18467714  0.42027383  0.16150059     0.12400
H153        H  0.17654235  0.46144447  0.13546856     0.12400
H154        H  0.07884903  0.42040668  0.17648099     0.12400
C155        C  0.16274651  0.40717034  0.33950445    -0.13700
C156        C  0.13706883  0.38806124  0.31852657     0.08500
C157        C  0.10818481  0.39055916  0.31960130    -0.13700
C158        C  0.10632247  0.41392462  0.33948286    -0.13700
C159        C  0.13319928  0.43478984  0.35877551     0.08500
C160        C  0.16060655  0.42981642  0.35973897    -0.13700
H161        H  0.18526781  0.40577146  0.33904381     0.12400
H162        H  0.08822001  0.37632653  0.30328816     0.12400
H163        H  0.08515248  0.41748465  0.33782533     0.12400
H164        H  0.18170634  0.44549016  0.37434094     0.12400
C165        C  0.28268593  0.35488299  0.28588925    -0.13700
C166        C  0.25727572  0.35891583  0.29939559     0.08500
C167        C  0.25927317  0.36847480  0.33140992    -0.13700
C168        C  0.28530391  0.37154601  0.35024336    -0.13700
C169        C  0.30953582  0.36541415  0.33696083     0.08500
C170        C  0.30864453  0.35831982  0.30442333    -0.13700
H171        H  0.28200288  0.34820690  0.26107824     0.12400
H172        H  0.23989496  0.37182765  0.34216405     0.12400
H173        H  0.28558926  0.37696247  0.37533920     0.12400
H174        H  0.32740838  0.35400725  0.29362576     0.12400
C175        C  0.27731305  0.38248495  0.17086842    -0.13700
C176        C  0.24611786  0.35397144  0.16936961     0.08500
C177        C  0.24139321  0.32957401  0.14710920    -0.13700
C178        C  0.26798807  0.33205211  0.12921864    -0.10400
C179        C  0.29980587  0.35900509  0.13310001     0.08500
C180        C  0.30398653  0.38494890  0.15286310    -0.13700
H181        H  0.28175646  0.40179299  0.18768131     0.12400
H182        H  0.21767297  0.30745644  0.14510978     0.12400
H183        H  0.26430687  0.31167593  0.11422896     0.12400
H184        H  0.32840053  0.40574850  0.15651313     0.12400
C185        C  0.11098927  0.21371178  0.30714476    -0.13700
C186        C  0.11056032  0.24324431  0.30985911     0.08500
C187        C  0.08974427  0.24612593  0.33234931    -0.13700
C188        C  0.06760939  0.21914117  0.34997687    -0.13700
C189        C  0.06534532  0.18858973  0.34486921     0.08500
C190        C  0.08828768  0.18635104  0.32451483    -0.13700
H191        H  0.12673356  0.21102329  0.28962404     0.12400
H192        H  0.08914665  0.26873432  0.33478744     0.12400
H193        H  0.05024466  0.22142109  0.36569920     0.12400
H194        H  0.08675489  0.16296935  0.32002243     0.12400
C195        C  0.09108251  0.21521771  0.17393012    -0.13700
C196        C  0.09530001  0.24696951  0.17396322     0.08500
C197        C  0.07861173  0.25467149  0.15115340    -0.13700
C198        C  0.05644685  0.23069000  0.13034049    -0.13700
C199        C  0.05015374  0.19831636  0.13199171     0.08500
C200        C  0.06855627  0.19103789  0.15318808    -0.13700
H201        H  0.10367318  0.20855382  0.19119114     0.12400
H202        H  0.08165594  0.27896875  0.15024193     0.12400
H203        H  0.04242283  0.23687378  0.11432966     0.12400
H204        H  0.06373095  0.16617858  0.15534424     0.12400
C205        C  0.42103324  0.16440290  0.33633806    -0.13700
C206        C  0.40150202  0.14111156  0.31336882     0.08500
C207        C  0.40409179  0.11262716  0.31004045    -0.13700
C208        C  0.42767776  0.10895900  0.32736297    -0.13700
C209        C  0.44888739  0.13357616  0.34848273     0.08500
C210        C  0.44425562  0.16060453  0.35372301    -0.13700
H211        H  0.41948110  0.18640752  0.33987919     0.12400
H212        H  0.38929576  0.09409371  0.29267958     0.12400
H213        H  0.43097779  0.08812642  0.32252018     0.12400
H214        H  0.46033701  0.18001995  0.36979140     0.12400
C215        C  0.38979178  0.11161002  0.17210799    -0.13700
C216        C  0.38729572  0.13995191  0.17545350     0.08500
C217        C  0.40504413  0.16615708  0.15491954    -0.13700
C218        C  0.42750129  0.16537418  0.13330575    -0.13700
C219        C  0.43350027  0.13893267  0.13286892     0.08500
C220        C  0.41301450  0.11114219  0.15094809    -0.13700
H221        H  0.37616168  0.09118205  0.18791001     0.12400
H222        H  0.40311136  0.18807096  0.15707944     0.12400
H223        H  0.44265930  0.18688496  0.11921724     0.12400
H224        H  0.41722235  0.09053504  0.15113371     0.12400
C225        C  0.32759163  0.24413559  0.16860438    -0.13700
C226        C  0.35537818  0.24910033  0.18554008     0.08500
C227        C  0.38581602  0.27756669  0.18012162    -0.13700
C228        C  0.38768673  0.30194136  0.15989059    -0.13700
C229        C  0.35921952  0.29780056  0.14450851     0.08500
C230        C  0.32961255  0.26791122  0.14794546    -0.13700
H231        H  0.30399307  0.22216602  0.17208596     0.12400
H232        H  0.40756474  0.28182902  0.19303301     0.12400
H233        H  0.41076063  0.32472429  0.15785757     0.12400
H234        H  0.30740383  0.26365791  0.13590645     0.12400
C235        C  0.33177980  0.24418507  0.34592880    -0.13700
C236        C  0.35648198  0.24825855  0.32396843     0.08500
C237        C  0.38623442  0.27833297  0.32339215    -0.13700
C238        C  0.38956418  0.30485928  0.34166739    -0.13700
C239        C  0.36325950  0.30163851  0.36079703     0.08500
C240        C  0.33516563  0.27062628  0.36418049    -0.13700
H241        H  0.30878093  0.22122906  0.34734904     0.12400
H242        H  0.40588902  0.28216676  0.30697271     0.12400
H243        H  0.41126861  0.32861267  0.33839151     0.12400
H244        H  0.31449807  0.26765446  0.37869259     0.12400
C245        C  0.23604883  0.06388515  0.36889183    -0.13700
C246        C  0.20426028  0.06029678  0.36894139     0.08500
C247        C  0.19763984  0.07975605  0.34882186    -0.13700
C248        C  0.22154846  0.10045192  0.32706147    -0.13700
C249        C  0.25242956  0.10192615  0.32511637     0.08500
C250        C  0.25991523  0.08448265  0.34712697    -0.13700
H251        H  0.24160812  0.04900911  0.38421600     0.12400
H252        H  0.17312986  0.07698569  0.34813462     0.12400
H253        H  0.21513484  0.11374996  0.31052382     0.12400
H254        H  0.28367790  0.08552433  0.34653001     0.12400
C255        C  0.21463368  0.10851004  0.18573587    -0.13700
C256        C  0.24402508  0.10699187  0.18613045     0.08500
C257        C  0.24762516  0.08566753  0.16512414    -0.13700
C258        C  0.22137698  0.06430726  0.14593263    -0.13700
C259        C  0.19050994  0.06286606  0.14828377     0.08500
C260        C  0.18782666  0.08630792  0.16709866    -0.13700
H261        H  0.21144788  0.12491456  0.20179662     0.12400
H262        H  0.27019214  0.08437408  0.16477725     0.12400
H263        H  0.22414572  0.04658497  0.13148348     0.12400
H264        H  0.16429679  0.08552404  0.16959062     0.12400
O265        O  0.27879371  0.10972346  0.72505935    -0.85700
O266        O  0.34258815  0.12596904  0.70954753    -0.82700
C267        C  0.37338081  0.14418776  0.70663573     0.97800
O268        O  0.38938193  0.16663103  0.72674006    -0.82800
O269        O  0.37308449  0.21370148  0.71455851    -0.85400
C270        C  0.35474827  0.22612534  0.71227885     1.02300
O271        O  0.33067524  0.21846787  0.73126834    -0.78200
O272        O  0.28225829  0.15695700  0.71483360    -0.78400
C273        C  0.27061868  0.12701842  0.70881225     1.02200
O274        O  0.29538791  0.11310214  0.79168351    -0.85700
O275        O  0.35740577  0.12434712  0.77542050    -0.82800
C276        C  0.37639120  0.14606353  0.79493994     0.97800
O277        O  0.38066241  0.17455896  0.79359097    -0.82800
O278        O  0.37160881  0.22638938  0.78087040    -0.85400
C279        C  0.34940460  0.22262715  0.80065862     1.02300
O280        O  0.32048886  0.19891130  0.79752429    -0.78200
O281        O  0.26849148  0.13874112  0.78034085    -0.78400
C282        C  0.27170548  0.11833811  0.79694642     1.02200
Cr283      Cr  0.31939622  0.12158285  0.75064772     1.93700
Cr284      Cr  0.37522897  0.19286746  0.75391416     1.93200
Cr285      Cr  0.30293611  0.17730716  0.75585523     1.39100
O286        O  0.33240076  0.16386850  0.75292535    -1.23400
O287        O  0.10773236  0.28224787  0.76876039    -0.85700
O288        O  0.12734233  0.34408311  0.78955626    -0.82700
C289        C  0.14756839  0.37358120  0.79550638     0.97800
O290        O  0.17154802  0.39022734  0.77691800    -0.82800
O291        O  0.21553463  0.36884930  0.78724292    -0.85400
C292        C  0.22818999  0.35068171  0.78566081     1.02300
O293        O  0.21823433  0.32778382  0.76535716    -0.78200
O294        O  0.15383241  0.28328792  0.78150659    -0.78400
C295        C  0.12347616  0.27302307  0.78615614     1.02200
O296        O  0.11554487  0.30456810  0.70399874    -0.85700
O297        O  0.12994447  0.36525601  0.72549102    -0.82800
C298        C  0.15300739  0.38407596  0.70704555     0.97800
O299        O  0.18139717  0.38730110  0.70942789    -0.82800
O300        O  0.22968228  0.37170104  0.72034886    -0.85400
C301        C  0.22530067  0.35015191  0.69972484     1.02300
O302        O  0.19943892  0.32253718  0.70050706    -0.78200
O303        O  0.13661025  0.27365227  0.71565014    -0.78400
C304        C  0.11850804  0.27984101  0.69829818     1.02200
Cr305      Cr  0.12336775  0.32477976  0.74678958     1.93700
Cr306      Cr  0.19699097  0.37642280  0.74827210     1.93200
Cr307      Cr  0.17614403  0.30412302  0.74114659     1.39100
O308        O  0.16547981  0.33510569  0.74569464    -1.23400
C309        C  0.39294192  0.38353607  0.61096291     0.02800
C310        C  0.36442746  0.38577624  0.61849912    -0.13400
C311        C  0.33746977  0.36009220  0.63408663     0.00300
C312        C  0.33951994  0.33274195  0.64295160    -0.11900
C313        C  0.36796092  0.33056310  0.63693509     0.02800
C314        C  0.39485438  0.35621564  0.62119004    -0.11300
H315        H  0.36296374  0.40721664  0.61230665     0.08400
H316        H  0.31926292  0.31358771  0.65626532     0.05900
H317        H  0.41680255  0.35447642  0.61613646     0.05700
C318        C  0.38219154  0.38413082  0.89613143     0.02800
C319        C  0.35651911  0.38627897  0.88101652    -0.13400
C320        C  0.33454679  0.36109037  0.86098234     0.00300
C321        C  0.33714469  0.33296969  0.85750428    -0.11900
C322        C  0.36231601  0.33012613  0.87205578     0.02800
C323        C  0.38533486  0.35598899  0.89109817    -0.11300
H324        H  0.35427221  0.40796683  0.88407055     0.08400
H325        H  0.31989379  0.31332115  0.84222440     0.05900
H326        H  0.40471311  0.35360992  0.90244917     0.05700
C327        C  0.11773086  0.49235943  0.91013572     0.02800
C328        C  0.11677429  0.46316651  0.90041485    -0.13400
C329        C  0.14099786  0.46388307  0.87980624     0.00300
C330        C  0.16624073  0.49396591  0.86897437    -0.11900
C331        C  0.16987516  0.02163397  0.87491600     0.02800
C332        C  0.14471720  0.02014634  0.89484456    -0.11300
H333        H  0.09711288  0.43986876  0.90879355     0.08400
H334        H  0.18423502  0.49455239  0.85199902     0.05900
H335        H  0.14533698  0.04261567  0.90184552     0.05700
C336        C  0.11329778  0.50074695  0.60071924     0.02800
C337        C  0.14106587  0.03424466  0.61276832    -0.13400
C338        C  0.16777077  0.03688911  0.63055151     0.00300
C339        C  0.16387816  0.50742104  0.64069815    -0.11900
C340        C  0.13878143  0.47631521  0.63230477     0.02800
C341        C  0.11339050  0.47299138  0.61255468    -0.11300
H342        H  0.14139145  0.05632062  0.60555778     0.08400
H343        H  0.18300872  0.50993510  0.65679957     0.05900
H344        H  0.09396604  0.44872353  0.60602579     0.05700
C345        C  0.50248240  0.12589408  0.58996729     0.02800
C346        C  0.02491788  0.15506023  0.60002212    -0.13400
C347        C  0.02282809  0.17584288  0.62293186     0.00300
C348        C  0.49937470  0.17041239  0.63281559    -0.11900
C349        C  0.47001197  0.14275792  0.62363111     0.02800
C350        C  0.47151808  0.12022071  0.60228878    -0.11300
H351        H  0.04857216  0.16193173  0.58891478     0.08400
H352        H  0.49847727  0.18712913  0.65023138     0.05900
H353        H  0.44864633  0.09914994  0.59498259     0.05700
C354        C  0.50835231  0.11975298  0.89346413     0.02800
C355        C  0.03604311  0.14807995  0.88553189    -0.13400
C356        C  0.03262493  0.16987009  0.86564623     0.00300
C357        C  0.50525237  0.16281832  0.85046669    -0.11900
C358        C  0.47603525  0.13647907  0.86175883     0.02800
C359        C  0.47746594  0.11464851  0.88297512    -0.11300
H360        H  0.06052903  0.15286380  0.89184140     0.08400
H361        H  0.50379862  0.17905648  0.83337555     0.05900
H362        H  0.45461704  0.09480355  0.89220404     0.05700
O363        O  0.48143224  0.44837121  0.95896269    -0.85700
O364        O  0.04587487  0.48731498  0.98064406    -0.82700
C365        C  0.05800985  0.00581659  0.95433270     0.97800
O366        O  0.05033445  0.02791142  0.95475501    -0.82800
O367        O  0.01817773  0.06208161  0.96943169    -0.85400
C368        C  0.99336376  0.04889453  0.95143737     1.02300
O369        O  0.46792412  0.01809943  0.95151695    -0.78200
O370        O  0.44037121  0.45792797  0.96530404    -0.78400
C371        C  0.45330535  0.44321642  0.95111922     1.02200
O372        O  0.46948600  0.45358966  0.54646105    -0.85700
O373        O  0.03939798  0.48286571  0.53074837    -0.82800
C374        C  0.05355759  0.01337282  0.54950881     0.97800
O375        O  0.04877078  0.03599026  0.54022660    -0.82800
O376        O  0.00928950  0.06141886  0.52277202    -0.85400
C377        C  0.98399307  0.05053745  0.54103186     1.02300
O378        O  0.46295151  0.02278511  0.53326399    -0.78200
O379        O  0.42914083  0.45480328  0.52183008    -0.78400
C380        C  0.43947854  0.44599554  0.54509483     1.02200
Cr381      Cr  0.49584584  0.46269532  0.50649910     1.93700
Cr382      Cr  0.02925135  0.03734892  0.49886578     1.93200
Cr383      Cr  0.45311569  0.49380430  0.49420653     1.39100
O384        O  0.99338157  0.99835934  0.50385862    -1.23400
C385        C  0.98948823  0.06790195  0.92600750    -0.16800
C386        C  0.51065804  0.09852395  0.91782891    -0.32000
H387        H  0.46647449  0.05511056  0.90635366     0.12200
H388        H  0.03564264  0.10996842  0.93323076     0.12800
C389        C  0.98000893  0.07168289  0.56492979    -0.16800
C390        C  0.50606952  0.10379768  0.56637719    -0.32000
H391        H  0.45867870  0.06268226  0.57206029     0.12200
H392        H  0.02233419  0.11525415  0.55204715     0.12800
C393        C  0.08686854  0.49510570  0.57784719    -0.16800
C394        C  0.07984558  0.02077880  0.57326818    -0.32000
H395        H  0.07226365  0.47043253  0.56845925     0.12200
H396        H  0.09418581  0.04572049  0.58181439     0.12800
C397        C  0.09214608  0.49000779  0.93329912    -0.16800
C398        C  0.08209975  0.00767892  0.93013719    -0.32000
H399        H  0.07973268  0.46807420  0.94760252     0.12200
H400        H  0.09114280  0.02750563  0.91321393     0.12800
C401        C  0.40387695  0.41111175  0.91811372    -0.16800
C402        C  0.43457123  0.41826162  0.92645594    -0.32000
H403        H  0.39385624  0.42586381  0.92795038     0.12200
H404        H  0.44578192  0.40488177  0.91599804     0.12800
C405        C  0.42040081  0.40853751  0.59131353    -0.16800
C406        C  0.41489212  0.42533859  0.56903777    -0.32000
H407        H  0.44462680  0.41057123  0.59271735     0.12200
H408        H  0.39014226  0.42154951  0.56594663     0.12800
C409        C  0.11664490  0.40304723  0.68285291    -0.13700
C410        C  0.14716507  0.40372057  0.68373639     0.08500
C411        C  0.17283416  0.42491594  0.66345474    -0.13700
C412        C  0.16898665  0.44680905  0.64460309    -0.13700
C413        C  0.13944236  0.44792642  0.64566376     0.08500
C414        C  0.11280918  0.42503583  0.66389850    -0.13700
H415        H  0.09627997  0.38667815  0.69796378     0.12400
H416        H  0.19643723  0.42564865  0.66319143     0.12400
H417        H  0.18974354  0.46416208  0.63044553     0.12400
H418        H  0.08988890  0.42564841  0.66514688     0.12400
C419        C  0.17104439  0.41159968  0.84096120    -0.13700
C420        C  0.14315948  0.38985410  0.82357531     0.08500
C421        C  0.11251358  0.38751268  0.83055232    -0.13700
C422        C  0.11075127  0.40966526  0.85194427    -0.13700
C423        C  0.13956608  0.43388573  0.86672829     0.08500
C424        C  0.16913655  0.43304390  0.86277694    -0.13700
H425        H  0.19477649  0.41331382  0.83626173     0.12400
H426        H  0.09069235  0.37068552  0.81739753     0.12400
H427        H  0.08767225  0.40980359  0.85459083     0.12400
H428        H  0.19154062  0.45103436  0.87442174     0.12400
C429        C  0.28095699  0.35139417  0.79147737    -0.13700
C430        C  0.25683505  0.35733783  0.80510068     0.08500
C431        C  0.26041951  0.36861766  0.83666484    -0.13700
C432        C  0.28681813  0.37165729  0.85496807    -0.13700
C433        C  0.30986067  0.36383398  0.84155925     0.08500
C434        C  0.30729953  0.35494050  0.80936289    -0.13700
H435        H  0.27919788  0.34351679  0.76693726     0.12400
H436        H  0.24213640  0.37361709  0.84746376     0.12400
H437        H  0.28837454  0.37856881  0.87977266     0.12400
H438        H  0.32516904  0.34949791  0.79828006     0.12400
C439        C  0.28291350  0.38516537  0.67871511    -0.13700
C440        C  0.25213877  0.35621237  0.67684686     0.08500
C441        C  0.24875543  0.33139126  0.65580827    -0.13700
C442        C  0.27620628  0.33412387  0.63936650    -0.10400
C443        C  0.30759483  0.36168663  0.64365725     0.08500
C444        C  0.31043512  0.38787814  0.66220706    -0.13700
H445        H  0.28628513  0.40484266  0.69456593     0.12400
H446        H  0.22536759  0.30893514  0.65356197     0.12400
H447        H  0.27338434  0.31371786  0.62492365     0.12400
H448        H  0.33438831  0.40929537  0.66600399     0.12400
C449        C  0.10875150  0.22176771  0.81577355    -0.13700
C450        C  0.10529713  0.24939676  0.81138437     0.08500
C451        C  0.08169231  0.25293108  0.82927326    -0.13700
C452        C  0.06026288  0.22823114  0.84957381    -0.13700
C453        C  0.06126662  0.19899007  0.85161836     0.08500
C454        C  0.08664474  0.19651305  0.83566683    -0.13700
H455        H  0.12691837  0.21869846  0.80214565     0.12400
H456        H  0.07901209  0.27432813  0.82660405     0.12400
H457        H  0.04140850  0.23109124  0.86216305     0.12400
H458        H  0.08789560  0.17422092  0.83676323     0.12400
C459        C  0.10122867  0.22826515  0.66735023    -0.13700
C460        C  0.09873061  0.25645599  0.67301606     0.08500
C461        C  0.07472418  0.26020822  0.65673636    -0.13700
C462        C  0.05159827  0.23485827  0.63774844    -0.13700
C463        C  0.05231833  0.20553032  0.63449242     0.08500
C464        C  0.07819744  0.20300090  0.64817713    -0.13700
H465        H  0.11971781  0.22483603  0.67926624     0.12400
H466        H  0.07242577  0.28179915  0.66029017     0.12400
H467        H  0.03179553  0.23724381  0.62729557     0.12400
H468        H  0.07901774  0.18047601  0.64618133     0.12400
C469        C  0.41572122  0.16326904  0.84004699    -0.13700
C470        C  0.39610145  0.13925975  0.81766152     0.08500
C471        C  0.39885181  0.11091161  0.81473038    -0.13700
C472        C  0.42308446  0.10822172  0.83164961    -0.13700
C473        C  0.44462363  0.13378486  0.85166820     0.08500
C474        C  0.43976916  0.16056190  0.85682309    -0.13700
H475        H  0.41395415  0.18519846  0.84317628     0.12400
H476        H  0.38393673  0.09194129  0.79776721     0.12400
H477        H  0.42670538  0.08752148  0.82720928     0.12400
H478        H  0.45624581  0.18054358  0.87218248     0.12400
C479        C  0.39397235  0.11132690  0.67641004    -0.13700
C480        C  0.39174153  0.13987698  0.67996366     0.08500
C481        C  0.41112548  0.16663489  0.66050068    -0.13700
C482        C  0.43396108  0.16581293  0.63932002    -0.13700
C483        C  0.43874301  0.13860519  0.63782569     0.08500
C484        C  0.41752710  0.11073404  0.65552744    -0.13700
H485        H  0.37934181  0.09049196  0.69146997     0.12400
H486        H  0.40973208  0.18882828  0.66283999     0.12400
H487        H  0.44983158  0.18756116  0.62581405     0.12400
H488        H  0.42091508  0.08961902  0.65510842     0.12400
C489        C  0.33706791  0.24554459  0.66635773    -0.13700
C490        C  0.36172417  0.25067657  0.68798629     0.08500
C491        C  0.39141274  0.28060942  0.68831879    -0.13700
C492        C  0.39504209  0.30629460  0.66921999    -0.13700
C493        C  0.36910741  0.30197759  0.64944460     0.08500
C494        C  0.34096581  0.27083067  0.64683492    -0.13700
H495        H  0.31419702  0.22241427  0.66560299     0.12400
H496        H  0.41067605  0.28483896  0.70498681     0.12400
H497        H  0.41684466  0.33009853  0.67179884     0.12400
H498        H  0.32085024  0.26678864  0.63138358     0.12400
C499        C  0.33218604  0.24357279  0.84801223    -0.13700
C500        C  0.35672187  0.24757613  0.82590359     0.08500
C501        C  0.38692346  0.27726956  0.82590429    -0.13700
C502        C  0.39081393  0.30367033  0.84477206    -0.13700
C503        C  0.36464733  0.30067469  0.86396653     0.08500
C504        C  0.33617928  0.26983911  0.86694353    -0.13700
H505        H  0.30889208  0.22088192  0.84905716     0.12400
H506        H  0.40653492  0.28099363  0.80947581     0.12400
H507        H  0.41283602  0.32725595  0.84184247     0.12400
H508        H  0.31561655  0.26701685  0.88153630     0.12400
C509        C  0.22954316  0.05958256  0.86438054    -0.13700
C510        C  0.19664763  0.05251736  0.86146345     0.08500
C511        C  0.18946048  0.07090719  0.84034868    -0.13700
C512        C  0.21437133  0.09407988  0.82059420    -0.13700
C513        C  0.24672111  0.09893805  0.82157821     0.08500
C514        C  0.25426056  0.08245018  0.84464058    -0.13700
H515        H  0.23566025  0.04569319  0.88048862     0.12400
H516        H  0.16420282  0.06559365  0.83740903     0.12400
H517        H  0.20784260  0.10651803  0.80314298     0.12400
H518        H  0.27902154  0.08602242  0.84637241     0.12400
C519        C  0.21551249  0.10940778  0.68421067    -0.13700
C520        C  0.24656303  0.11126098  0.68301346     0.08500
C521        C  0.25301916  0.09419787  0.65912455    -0.13700
C522        C  0.22801636  0.07339121  0.63845412    -0.13700
C523        C  0.19571485  0.06828189  0.64204806     0.08500
C524        C  0.19006941  0.08779661  0.66394616    -0.13700
H525        H  0.21011548  0.12244907  0.70257503     0.12400
H526        H  0.27687277  0.09551444  0.65767148     0.12400
H527        H  0.23300056  0.05861070  0.62177631     0.12400
H528        H  0.16537537  0.08403802  0.66748866     0.12400
O529        O  0.27868056  0.60966908  0.22752529    -0.85700
O530        O  0.34108306  0.62643084  0.20724510    -0.82700
C531        C  0.37139982  0.64504637  0.20205417     0.97800
O532        O  0.38885973  0.66847102  0.22076428    -0.82800
O533        O  0.37166189  0.71539489  0.21115435    -0.85400
C534        C  0.35241635  0.72692839  0.21009585     1.02300
O535        O  0.32938940  0.71883470  0.23034843    -0.78200
O536        O  0.28163971  0.65624499  0.21550047    -0.78400
C537        C  0.26931049  0.62593171  0.21114536     1.02200
O538        O  0.30110068  0.61617888  0.29236752    -0.85700
O539        O  0.36170344  0.62684144  0.27127634    -0.82800
C540        C  0.38180608  0.64894014  0.28982885     0.97800
O541        O  0.38569065  0.67733780  0.28852987    -0.82800
O542        O  0.37388649  0.72810117  0.27804298    -0.85400
C543        C  0.35214348  0.72457032  0.29835590     1.02300
O544        O  0.32328627  0.70054920  0.29631164    -0.78200
O545        O  0.27215455  0.63973254  0.28122383    -0.78400
C546        C  0.27698722  0.62056850  0.29808769     1.02200
Cr547      Cr  0.32153477  0.62312549  0.24978455     1.93700
Cr548      Cr  0.37670013  0.69489495  0.24979414     1.93200
Cr549      Cr  0.30413440  0.67795514  0.25555475     1.39100
O550        O  0.33409580  0.66535896  0.25120980    -1.23400
O551        O  0.11540717  0.78587820  0.28125191    -0.85700
O552        O  0.13142425  0.84833589  0.29814502    -0.82700
C553        C  0.15008334  0.87865226  0.30167815     0.97800
O554        O  0.17330550  0.89464481  0.28210753    -0.82800
O555        O  0.22030016  0.87601942  0.29000973    -0.85400
C556        C  0.23456057  0.85935904  0.28718883     1.02300
O557        O  0.22496778  0.83646596  0.26696986    -0.78200
O558        O  0.16397008  0.78960311  0.28828479    -0.78400
C559        C  0.13399160  0.77793820  0.29585687     1.02200
O560        O  0.11516121  0.80257995  0.21509291    -0.85700
O561        O  0.12768642  0.86345477  0.23313037    -0.82800
C562        C  0.14912346  0.88235687  0.21338468     0.97800
O563        O  0.17843990  0.88784541  0.21446627    -0.82800
O564        O  0.23011310  0.87669640  0.22240468    -0.85400
C565        C  0.22519850  0.85490511  0.20184393     1.02300
O566        O  0.19993061  0.82698016  0.20401810    -0.78200
O567        O  0.14072770  0.77548711  0.22491213    -0.78400
C568        C  0.12010526  0.77912059  0.20898528     1.02200
Cr569      Cr  0.12567334  0.82588182  0.25656770     1.93700
Cr570      Cr  0.19809099  0.88062256  0.25231263     1.93200
Cr571      Cr  0.18132384  0.80944444  0.24649396     1.39100
O572        O  0.16823984  0.83861434  0.25229432    -1.23400
C573        C  0.38383364  0.87881582  0.10048739     0.02800
C574        C  0.35700149  0.88345711  0.10953506    -0.13400
C575        C  0.33224116  0.86137465  0.13005020     0.00300
C576        C  0.33434144  0.83499387  0.14181798    -0.11900
C577        C  0.36024278  0.82947675  0.13310569     0.02800
C578        C  0.38509128  0.85159448  0.11251861    -0.11300
H579        H  0.35452529  0.90341284  0.10036506     0.08400
H580        H  0.31571900  0.81889657  0.15863768     0.05900
H581        H  0.40522162  0.84746171  0.10564204     0.05700
C582        C  0.38750427  0.88749387  0.39377978     0.02800
C583        C  0.36274195  0.89096940  0.37878180    -0.13400
C584        C  0.34030150  0.86646082  0.35872761     0.00300
C585        C  0.34186838  0.83788268  0.35425998    -0.11900
C586        C  0.36646821  0.83385354  0.36853808     0.02800
C587        C  0.38977081  0.85894151  0.38811471    -0.11300
H588        H  0.36129256  0.91307383  0.38219817     0.08400
H589        H  0.32437319  0.81897822  0.33848597     0.05900
H590        H  0.40945796  0.85626013  0.39836742     0.05700
C591        C  0.12409733  0.00507678  0.41300845     0.02800
C592        C  0.11954345  0.97403682  0.40322897    -0.13400
C593        C  0.14388566  0.97199699  0.38443141     0.00300
C594        C  0.17210198  0.00084651  0.37536604    -0.11900
C595        C  0.17122916  0.52549653  0.37238639     0.02800
C596        C  0.14814457  0.52799149  0.39195356    -0.11300
H597        H  0.09779958  0.95166572  0.41025284     0.08400
H598        H  0.19000579  0.99959102  0.35953803     0.05900
H599        H  0.15290999  0.55199475  0.39954497     0.05700
C600        C  0.10748995  0.99989632  0.11165139     0.02800
C601        C  0.13080429  0.53250378  0.12485510    -0.13400
C602        C  0.15623874  0.53344393  0.14349071     0.00300
C603        C  0.15769676  0.00309272  0.14977364    -0.11900
C604        C  0.13076792  0.97282022  0.14207376     0.02800
C605        C  0.10531215  0.97121836  0.12367803    -0.11300
H606        H  0.13296123  0.55520603  0.11691993     0.08400
H607        H  0.17668780  0.00402544  0.16510133     0.05900
H608        H  0.08446515  0.94755275  0.11769479     0.05700
C609        C  0.50159400  0.62153481  0.09846319     0.02800
C610        C  0.03172178  0.65225062  0.11058538    -0.13400
C611        C  0.02855136  0.67574664  0.12877017     0.00300
C612        C  0.49561957  0.67076324  0.13073275    -0.11900
C613        C  0.46705283  0.64167270  0.12267720     0.02800
C614        C  0.47006281  0.61686467  0.10687617    -0.11300
H615        H  0.05613768  0.65607969  0.10490890     0.08400
H616        H  0.49326600  0.68887429  0.14490161     0.05900
H617        H  0.44788510  0.59400386  0.10185979     0.05700
C618        C  0.51193878  0.61465006  0.38473816     0.02800
C619        C  0.04491768  0.64245917  0.38123035    -0.13400
C620        C  0.04551212  0.66843429  0.36487772     0.00300
C621        C  0.51123601  0.66461880  0.34981537    -0.11900
C622        C  0.48126100  0.63698836  0.35753932     0.02800
C623        C  0.48157683  0.61169292  0.37462402    -0.11300
H624        H  0.06792598  0.64475830  0.38945472     0.08400
H625        H  0.51105008  0.68365560  0.33579900     0.05900
H626        H  0.45823178  0.59020312  0.37996794     0.05700
O627        O  0.45800096  0.93173488  0.48526769    -0.85700
O628        O  0.02159089  0.96696897  0.47295646    -0.82700
C629        C  0.04689811  0.48860956  0.45779436     0.97800
O630        O  0.05629988  0.51679939  0.46992086    -0.82800
O631        O  0.01694258  0.54267646  0.45193938    -0.85400
C632        C  0.99141986  0.54515795  0.44898833     1.02300
O633        O  0.46614925  0.53210176  0.46615708    -0.78200
O634        O  0.44817220  0.96561061  0.45861825    -0.78400
C635        C  0.44545841  0.93773823  0.46168592     1.02200
O636        O  0.45991992  0.94279505  0.03234517    -0.85700
O637        O  0.03236369  0.98492160  0.04281924    -0.82800
C638        C  0.05490741  0.51389467  0.04837036     0.97800
O639        O  0.06180616  0.53528094  0.02746021    -0.82800
O640        O  0.01736366  0.55727269  0.03723703    -0.85400
C641        C  0.99056232  0.55780105  0.03721091     1.02300
O642        O  0.46938154  0.53790566  0.01849231    -0.78200
O643        O  0.43963621  0.97610905  0.03552456    -0.78400
C644        C  0.43995662  0.95091305  0.04457330     1.02200
Cr645      Cr  0.50160105  0.96824294  0.00626229     1.93700
Cr646      Cr  0.03239822  0.54312674  0.99903214     1.93200
Cr647      Cr  0.45588397  0.99727671  0.99395671     1.39100
O648        O  0.99784802  0.50303584  0.00095908    -1.23400
C649        C  0.98911752  0.56632542  0.42465254    -0.16800
C650        C  0.51373385  0.59002897  0.40559676    -0.32000
H651        H  0.46457804  0.56759142  0.42230025     0.12200
H652        H  0.03895247  0.58946755  0.41084267     0.12800
C653        C  0.98507099  0.57954086  0.05887212    -0.16800
C654        C  0.50605164  0.59621656  0.08104174    -0.32000
H655        H  0.45872806  0.57162394  0.06041475     0.12200
H656        H  0.03197169  0.60159107  0.07980215     0.12800
C657        C  0.08074838  0.99605466  0.09010333    -0.16800
C658        C  0.07985806  0.52056966  0.07318954    -0.32000
H659        H  0.05704566  0.97367637  0.09177326     0.12200
H660        H  0.10290982  0.54353050  0.07174336     0.12800
C661        C  0.10051933  0.00985413  0.43402692    -0.16800
C662        C  0.06713823  0.48245852  0.43405591    -0.32000
H663        H  0.10905194  0.03424397  0.44359678     0.12200
H664        H  0.05688088  0.45769807  0.42506916     0.12800
C665        C  0.41055085  0.91479576  0.41449242    -0.16800
C666        C  0.42626131  0.91099238  0.43902705    -0.32000
H667        H  0.41247523  0.93849711  0.41101589     0.12200
H668        H  0.42358294  0.88723890  0.44387116     0.12800
C669        C  0.41020944  0.90081766  0.07763107    -0.16800
C670        C  0.41548567  0.93051569  0.06910265    -0.32000
H671        H  0.42587972  0.89204216  0.06724440     0.12200
H672        H  0.40083815  0.94031768  0.07959990     0.12800
C673        C  0.11057858  0.90019875  0.19243078    -0.13700
C674        C  0.14060049  0.89993790  0.19010866     0.08500
C675        C  0.16399618  0.91921132  0.16708903    -0.13700
C676        C  0.15898440  0.94074543  0.14898686    -0.13700
C677        C  0.13060616  0.94349869  0.15367776     0.08500
C678        C  0.10563010  0.92200092  0.17428714    -0.13700
H679        H  0.09194547  0.88522856  0.20972271     0.12400
H680        H  0.18707111  0.91906524  0.16430280     0.12400
H681        H  0.17838871  0.95702876  0.13293104     0.12400
H682        H  0.08361324  0.92389447  0.17820555     0.12400
C683        C  0.17057796  0.91500828  0.34912845    -0.13700
C684        C  0.14468213  0.89636218  0.32822303     0.08500
C685        C  0.11546783  0.89813520  0.33057896    -0.13700
C686        C  0.11342265  0.92049730  0.35169064    -0.13700
C687        C  0.14042722  0.94099997  0.37099019     0.08500
C688        C  0.16821149  0.93656194  0.37070231    -0.13700
H689        H  0.19327890  0.91397244  0.34775884     0.12400
H690        H  0.09527587  0.88408063  0.31443158     0.12400
H691        H  0.09197319  0.92368629  0.35097327     0.12400
H692        H  0.18940804  0.95196837  0.38531058     0.12400
C693        C  0.28894595  0.86340863  0.29020025    -0.13700
C694        C  0.26410214  0.86724077  0.30533491     0.08500
C695        C  0.26672892  0.87541987  0.33772395    -0.13700
C696        C  0.29285933  0.87713908  0.35530067    -0.13700
C697        C  0.31630431  0.87086917  0.34035382     0.08500
C698        C  0.31489614  0.86534642  0.30752772    -0.13700
H699        H  0.28761833  0.85769597  0.26504815     0.12400
H700        H  0.24769691  0.87848161  0.34965216     0.12400
H701        H  0.29374078  0.88147219  0.38068728     0.12400
H702        H  0.33313724  0.86104627  0.29556295     0.12400
C703        C  0.28290992  0.88827616  0.18050858    -0.13700
C704        C  0.25099369  0.86096778  0.17764480     0.08500
C705        C  0.24544024  0.83731713  0.15422311    -0.13700
C706        C  0.27174364  0.83940854  0.13608714    -0.10400
C707        C  0.30405597  0.86520460  0.14093839     0.08500
C708        C  0.30925551  0.89032821  0.16231662    -0.13700
H709        H  0.28804421  0.90686021  0.19841543     0.12400
H710        H  0.22117374  0.81608898  0.15131329     0.12400
H711        H  0.26731984  0.81959507  0.11992663     0.12400
H712        H  0.33406924  0.91007714  0.16685239     0.12400
C713        C  0.12131849  0.72445120  0.31853072    -0.13700
C714        C  0.11934269  0.75318121  0.32068964     0.08500
C715        C  0.09866667  0.75573411  0.34356966    -0.13700
C716        C  0.07771347  0.72878285  0.36185978    -0.13700
C717        C  0.07633414  0.69860717  0.35668217     0.08500
C718        C  0.09967374  0.69709164  0.33637037    -0.13700
H719        H  0.13716335  0.72214116  0.30085098     0.12400
H720        H  0.09707178  0.77784069  0.34568611     0.12400
H721        H  0.05998657  0.73047351  0.37755781     0.12400
H722        H  0.09882919  0.67402780  0.33183344     0.12400
C723        C  0.10207640  0.72574499  0.18096007    -0.13700
C724        C  0.10066462  0.75479729  0.18422913     0.08500
C725        C  0.07918769  0.75950189  0.16480482    -0.13700
C726        C  0.05782082  0.73471143  0.14429502    -0.13700
C727        C  0.05717609  0.70455743  0.14311217     0.08500
C728        C  0.08043569  0.70078390  0.16060282    -0.13700
H729        H  0.11866855  0.72156858  0.19537329     0.12400
H730        H  0.07795037  0.78182884  0.16634828     0.12400
H731        H  0.04037234  0.73836220  0.13068740     0.12400
H732        H  0.08030513  0.67774106  0.16028922     0.12400
C733        C  0.42263905  0.66622203  0.33401101    -0.13700
C734        C  0.40254628  0.64233834  0.31174001     0.08500
C735        C  0.40478931  0.61366530  0.30892255    -0.13700
C736        C  0.42860881  0.61033114  0.32607497    -0.13700
C737        C  0.45044393  0.63555926  0.34632611     0.08500
C738        C  0.44622019  0.66284443  0.35109883    -0.13700
H739        H  0.42126139  0.68836007  0.33717679     0.12400
H740        H  0.38950175  0.59469359  0.29212599     0.12400
H741        H  0.43151790  0.58918244  0.32179838     0.12400
H742        H  0.46262798  0.68256975  0.36671559     0.12400
C743        C  0.39044092  0.61092215  0.17319862    -0.13700
C744        C  0.38770398  0.63922576  0.17484789     0.08500
C745        C  0.40586202  0.66477848  0.15375494    -0.13700
C746        C  0.42889357  0.66345449  0.13329859    -0.13700
C747        C  0.43495473  0.63708993  0.13450740     0.08500
C748        C  0.41416186  0.60989273  0.15316567    -0.13700
H749        H  0.37659904  0.59104650  0.18953618     0.12400
H750        H  0.40385189  0.68669752  0.15468908     0.12400
H751        H  0.44427011  0.68449689  0.11872387     0.12400
H752        H  0.41840050  0.58936241  0.15463458     0.12400
C753        C  0.32853400  0.74678389  0.16993318    -0.13700
C754        C  0.35655034  0.75062246  0.18559597     0.08500
C755        C  0.38726835  0.77861486  0.17992636    -0.13700
C756        C  0.38927869  0.80374572  0.16083203    -0.13700
C757        C  0.36064213  0.80080328  0.14689575     0.08500
C758        C  0.33065916  0.77131444  0.15036387    -0.13700
H759        H  0.30470256  0.72517374  0.17369740     0.12400
H760        H  0.40916762  0.78197634  0.19192605     0.12400
H761        H  0.41265707  0.82620236  0.15869509     0.12400
H762        H  0.30831767  0.76797563  0.13931667     0.12400
C763        C  0.33528379  0.74679346  0.34489116    -0.13700
C764        C  0.35971551  0.75017594  0.32291313     0.08500
C765        C  0.38984096  0.77990027  0.32213768    -0.13700
C766        C  0.39392925  0.80672799  0.34040307    -0.13700
C767        C  0.36802579  0.80415309  0.35975426     0.08500
C768        C  0.33941421  0.77352656  0.36310767    -0.13700
H769        H  0.31197227  0.72416556  0.34640512     0.12400
H770        H  0.40928041  0.78321485  0.30566071     0.12400
H771        H  0.41599282  0.83019990  0.33709945     0.12400
H772        H  0.31901632  0.77108289  0.37773078     0.12400
C773        C  0.23137113  0.55604858  0.35962541    -0.13700
C774        C  0.20058201  0.55469572  0.36004447     0.08500
C775        C  0.19695613  0.57863257  0.34415183    -0.13700
C776        C  0.22282680  0.60174382  0.32561851    -0.13700
C777        C  0.25262882  0.60113309  0.32274894     0.08500
C778        C  0.25722194  0.57910753  0.34111853    -0.13700
H779        H  0.23473434  0.53799101  0.37210523     0.12400
H780        H  0.17335041  0.57793323  0.34409519     0.12400
H781        H  0.21870069  0.61865374  0.31196141     0.12400
H782        H  0.28010698  0.57841309  0.33977069     0.12400
C783        C  0.21407663  0.61107990  0.18785220    -0.13700
C784        C  0.24287305  0.60843046  0.18761707     0.08500
C785        C  0.24463170  0.58559671  0.16729561    -0.13700
C786        C  0.21730667  0.56405981  0.14940272    -0.13700
C787        C  0.18705822  0.56384146  0.15244923     0.08500
C788        C  0.18611435  0.58864450  0.17056499    -0.13700
H789        H  0.21227775  0.62863601  0.20342341     0.12400
H790        H  0.26665695  0.58333904  0.16648390     0.12400
H791        H  0.21884961  0.54540471  0.13535573     0.12400
H792        H  0.16315480  0.58893677  0.17350582     0.12400
O793        O  0.27253471  0.60758832  0.72374360    -0.85700
O794        O  0.33541795  0.62285139  0.70635290    -0.82700
C795        C  0.36632713  0.63990366  0.70352136     0.97800
O796        O  0.38311840  0.66152866  0.72403262    -0.82800
O797        O  0.36850657  0.70964151  0.71222394    -0.85400
C798        C  0.35073400  0.72267871  0.71011059     1.02300
O799        O  0.32725018  0.71608514  0.72958981    -0.78200
O800        O  0.27759088  0.65548478  0.71379588    -0.78400
C801        C  0.26535717  0.62556806  0.70750815     1.02200
O802        O  0.29047831  0.61018144  0.78954548    -0.85700
O803        O  0.35136835  0.62008457  0.77155440    -0.82800
C804        C  0.37047791  0.64115554  0.79145799     0.97800
O805        O  0.37530936  0.66988242  0.79089518    -0.82800
O806        O  0.36847424  0.72320721  0.77834114    -0.85400
C807        C  0.34691110  0.72047730  0.79844783     1.02300
O808        O  0.31769962  0.69710069  0.79607621    -0.78200
O809        O  0.26458978  0.63722827  0.77973796    -0.78400
C810        C  0.26767247  0.61643787  0.79590703     1.02200
Cr811      Cr  0.31336723  0.61841340  0.74804729     1.93700
Cr812      Cr  0.37048179  0.68878284  0.75144158     1.93200
Cr813      Cr  0.29902208  0.67539740  0.75463440     1.39100
O814        O  0.32746084  0.66083781  0.75094084    -1.23400
O815        O  0.10935239  0.77984274  0.76546685    -0.85700
O816        O  0.12937654  0.84175082  0.78705817    -0.82700
C817        C  0.14988140  0.87115094  0.79320735     0.97800
O818        O  0.17368652  0.88781920  0.77451293    -0.82800
O819        O  0.21732412  0.86603137  0.78435985    -0.85400
C820        C  0.23035020  0.84819725  0.78258212     1.02300
O821        O  0.22028343  0.82516553  0.76230768    -0.78200
O822        O  0.15505526  0.77985770  0.77797204    -0.78400
C823        C  0.12454622  0.76935761  0.78209615     1.02200
O824        O  0.11724858  0.80277838  0.70109969    -0.85700
O825        O  0.13192578  0.86358841  0.72300414    -0.82800
C826        C  0.15512367  0.88280238  0.70482528     0.97800
O827        O  0.18336785  0.88562873  0.70700908    -0.82800
O828        O  0.23108208  0.86933425  0.71753293    -0.85400
C829        C  0.22626689  0.84807816  0.69650064     1.02300
O830        O  0.20060866  0.82039483  0.69737833    -0.78200
O831        O  0.13808303  0.77147962  0.71211312    -0.78400
C832        C  0.11994340  0.77793939  0.69506121     1.02200
Cr833      Cr  0.12519413  0.82271846  0.74403052     1.93700
Cr834      Cr  0.19878800  0.87403594  0.74564048     1.93200
Cr835      Cr  0.17771123  0.80162613  0.73793991     1.39100
O836        O  0.16718667  0.83274806  0.74290008    -1.23400
C837        C  0.39313078  0.88081557  0.60944338     0.02800
C838        C  0.36492867  0.88354883  0.61691171    -0.13400
C839        C  0.33725656  0.85764643  0.63117304     0.00300
C840        C  0.33833006  0.82970702  0.63950167    -0.11900
C841        C  0.36634044  0.82679574  0.63348587     0.02800
C842        C  0.39388315  0.85253638  0.61849701    -0.11300
H843        H  0.36415168  0.90557169  0.61185031     0.08400
H844        H  0.31760350  0.81068405  0.65245244     0.05900
H845        H  0.41555920  0.85032982  0.61342836     0.05700
C846        C  0.38275095  0.88229468  0.89752317     0.02800
C847        C  0.35869528  0.88592024  0.88062821    -0.13400
C848        C  0.33872958  0.86258332  0.85786649     0.00300
C849        C  0.34185962  0.83492586  0.85308169    -0.11900
C850        C  0.36497978  0.83035283  0.86954296     0.02800
C851        C  0.38598150  0.85428254  0.89151171    -0.11300
H852        H  0.35595923  0.90720898  0.88471825     0.08400
H853        H  0.32602502  0.81650495  0.83599449     0.05900
H854        H  0.40376694  0.85046648  0.90424680     0.05700
C855        C  0.11973247  0.98966128  0.90653497     0.02800
C856        C  0.11998055  0.96096871  0.89750086    -0.13400
C857        C  0.14457607  0.96231077  0.87707920     0.00300
C858        C  0.16940969  0.99268997  0.86624531    -0.11900
C859        C  0.16788798  0.52331665  0.87805248     0.02800
C860        C  0.14340652  0.52259537  0.89852699    -0.11300
H861        H  0.10076332  0.93751437  0.90605615     0.08400
H862        H  0.18792739  0.99382975  0.84963009     0.05900
H863        H  0.14504695  0.54543493  0.90583367     0.05700
C864        C  0.11480595  0.00297333  0.60387310     0.02800
C865        C  0.13891087  0.53223463  0.60971800    -0.13400
C866        C  0.16433616  0.53539839  0.62960619     0.00300
C867        C  0.16770754  0.00848009  0.63975941    -0.11900
C868        C  0.14189383  0.97755515  0.63191541     0.02800
C869        C  0.11547378  0.97487947  0.61406184    -0.11300
H870        H  0.13989872  0.55412996  0.60092303     0.08400
H871        H  0.18751010  0.01048889  0.65457497     0.05900
H872        H  0.09549848  0.95078601  0.60788085     0.05700
C873        C  0.49693684  0.62273923  0.58994794     0.02800
C874        C  0.02609644  0.65431566  0.59541652    -0.13400
C875        C  0.02375747  0.67487613  0.61844501     0.00300
C876        C  0.49179173  0.66564481  0.63339870    -0.11900
C877        C  0.46303379  0.63838137  0.62257147     0.02800
C878        C  0.46550272  0.61669853  0.60094993    -0.11300
H879        H  0.04987099  0.66133147  0.58451038     0.08400
H880        H  0.48988153  0.68170204  0.65096122     0.05900
H881        H  0.44299681  0.59601954  0.59231524     0.05700
C882        C  0.49426095  0.60001985  0.88426222     0.02800
C883        C  0.03329265  0.64054424  0.87710437    -0.13400
C884        C  0.03028774  0.66115222  0.85523040     0.00300
C885        C  0.49770346  0.65190852  0.84965315    -0.11900
C886        C  0.46696731  0.62506909  0.85694122     0.02800
C887        C  0.46530623  0.59889488  0.87360815    -0.11300
H888        H  0.05764253  0.64569706  0.88438514     0.08400
H889        H  0.49875731  0.67167225  0.83586100     0.05900
H890        H  0.44134609  0.57825457  0.87946442     0.05700
O891        O  0.47866293  0.94557157  0.96634112    -0.85700
O892        O  0.04687087  0.98380452  0.97550628    -0.82700
C893        C  0.05803875  0.51026685  0.96045808     0.97800
O894        O  0.05011329  0.53222869  0.96089780    -0.82800
O895        O  0.01164897  0.56083645  0.96960465    -0.85400
C896        C  0.98858215  0.54590688  0.94983365     1.02300
O897        O  0.47882919  0.52491942  0.95324264    -0.78200
O898        O  0.43662855  0.95407639  0.97122461    -0.78400
C899        C  0.45003029  0.93910395  0.95835453     1.02200
O900        O  0.47248988  0.95472302  0.54991264    -0.85700
O901        O  0.03714646  0.98488704  0.53796255    -0.82800
C902        C  0.05459825  0.51082594  0.54365566     0.97800
O903        O  0.04915898  0.53321181  0.53539396    -0.82800
O904        O  0.01153715  0.56018346  0.51784672    -0.85400
C905        C  0.98642399  0.54971998  0.53631381     1.02300
O906        O  0.45919645  0.52078072  0.53232073    -0.78200
O907        O  0.43262402  0.95651015  0.52483844    -0.78400
C908        C  0.44261320  0.94743039  0.54817366     1.02200
Cr909      Cr  0.49829386  0.96236545  0.50996746     1.93700
Cr910      Cr  0.03061735  0.53504764  0.49408183     1.93200
Cr911      Cr  0.45686179  0.99451455  0.49617827     1.39100
O912        O  0.99449593  0.49632379  0.49916719    -1.23400
C913        C  0.98545121  0.56346508  0.92252468    -0.16800
C914        C  0.49035452  0.57301702  0.90498158    -0.32000
H915        H  0.53030201  0.60287124  0.93437671     0.12200
H916        H  0.03167829  0.60576478  0.92875682     0.12800
C917        C  0.98232903  0.57108112  0.55999800    -0.16800
C918        C  0.50116910  0.60158844  0.56583038    -0.32000
H919        H  0.45511569  0.55918673  0.57319375     0.12200
H920        H  0.02421166  0.61496843  0.54709196     0.12800
C921        C  0.08687052  0.99768044  0.58283415    -0.16800
C922        C  0.07997571  0.51806367  0.56798777    -0.32000
H923        H  0.07135938  0.97290219  0.57407236     0.12200
H924        H  0.09320860  0.54274690  0.57742598     0.12800
C925        C  0.09372411  0.98672265  0.92920650    -0.16800
C926        C  0.08295776  0.51280289  0.93670278    -0.32000
H927        H  0.08334583  0.96611918  0.94532825     0.12200
H928        H  0.09377334  0.53408477  0.92151705     0.12800
C929        C  0.40269798  0.90776259  0.92192814    -0.16800
C930        C  0.43174450  0.91317063  0.93402524    -0.32000
H931        H  0.39317769  0.92361005  0.92976664     0.12200
H932        H  0.44282445  0.89890296  0.92562792     0.12800
C933        C  0.42147705  0.90645632  0.59119836    -0.16800
C934        C  0.41766158  0.92648186  0.57151112    -0.32000
H935        H  0.44486077  0.90657544  0.59129284     0.12200
H936        H  0.39370305  0.92474496  0.56916078     0.12800
C937        C  0.11936554  0.90316057  0.68145077    -0.13700
C938        C  0.14966502  0.90335831  0.68207504     0.08500
C939        C  0.17546063  0.92487761  0.66203067    -0.13700
C940        C  0.17187766  0.94729333  0.64360062    -0.13700
C941        C  0.14245930  0.94873861  0.64481689     0.08500
C942        C  0.11579333  0.92565686  0.66294378    -0.13700
H943        H  0.09890948  0.88666579  0.69639414     0.12400
H944        H  0.19894547  0.92536169  0.66155818     0.12400
H945        H  0.19273204  0.96469565  0.62958321     0.12400
H946        H  0.09297447  0.92643787  0.66446541     0.12400
C947        C  0.17436352  0.90978634  0.83806160    -0.13700
C948        C  0.14602828  0.88748298  0.82149870     0.08500
C949        C  0.11551425  0.88511135  0.82907033    -0.13700
C950        C  0.11420598  0.90768271  0.85016332    -0.13700
C951        C  0.14337194  0.93245205  0.86399043     0.08500
C952        C  0.17296236  0.93180988  0.85947991    -0.13700
H953        H  0.19803777  0.91155561  0.83287128     0.12400
H954        H  0.09338288  0.86793930  0.81651600     0.12400
H955        H  0.09108333  0.90765027  0.85326626     0.12400
H956        H  0.19562798  0.95019066  0.87044297     0.12400
C957        C  0.28572032  0.85364751  0.78771677    -0.13700
C958        C  0.25949398  0.85578977  0.80194105     0.08500
C959        C  0.26175257  0.86511499  0.83407936    -0.13700
C960        C  0.28884163  0.86973762  0.85229833    -0.13700
C961        C  0.31415407  0.86567054  0.83831688     0.08500
C962        C  0.31289550  0.85895069  0.80557727    -0.13700
H963        H  0.28496858  0.84740191  0.76277368     0.12400
H964        H  0.24188867  0.86727715  0.84538451     0.12400
H965        H  0.28912663  0.87466706  0.87750207     0.12400
H966        H  0.33231313  0.85613117  0.79410692     0.12400
C967        C  0.28334794  0.88330613  0.67530019    -0.13700
C968        C  0.25253506  0.85451283  0.67308161     0.08500
C969        C  0.24879362  0.83001006  0.65147328    -0.13700
C970        C  0.27616828  0.83265630  0.63509438    -0.10400
C971        C  0.30767387  0.85975888  0.64016789     0.08500
C972        C  0.31078904  0.88587957  0.65896039    -0.13700
H973        H  0.28687322  0.90276774  0.69152963     0.12400
H974        H  0.22526609  0.80775517  0.64892160     0.12400
H975        H  0.27321792  0.81241066  0.62030753     0.12400
H976        H  0.33485747  0.90697213  0.66323805     0.12400
C977        C  0.10843317  0.71589551  0.80851676    -0.13700
C978        C  0.10529988  0.74392448  0.80566816     0.08500
C979        C  0.08051843  0.74602151  0.82294103    -0.13700
C980        C  0.05797869  0.71991637  0.84121911    -0.13700
C981        C  0.05913263  0.69071653  0.84207343     0.08500
C982        C  0.08529052  0.68926689  0.82654808    -0.13700
H983        H  0.12731868  0.71376177  0.79517233     0.12400
H984        H  0.07782862  0.76750154  0.82132119     0.12400
H985        H  0.03838298  0.72187401  0.85338509     0.12400
H986        H  0.08658676  0.66696699  0.82672051     0.12400
C987        C  0.10290696  0.72724327  0.66236689    -0.13700
C988        C  0.09981568  0.75484531  0.66964502     0.08500
C989        C  0.07499619  0.75836644  0.65471656    -0.13700
C990        C  0.05182584  0.73338127  0.63543184    -0.13700
C991        C  0.05316251  0.70451964  0.63052371     0.08500
C992        C  0.07978539  0.70230189  0.64287581    -0.13700
H993        H  0.12204281  0.72403131  0.67317978     0.12400
H994        H  0.07216363  0.77948388  0.65951659     0.12400
H995        H  0.03156323  0.73565856  0.62598644     0.12400
H996        H  0.08121373  0.68020251  0.63957562     0.12400
C997        C  0.41018172  0.65664787  0.83590516    -0.13700
C998        C  0.38972743  0.63325132  0.81347159     0.08500
C999        C  0.39103760  0.60421602  0.80977906    -0.13700
C1000       C  0.41460904  0.60011144  0.82613489    -0.13700
C1001       C  0.43703171  0.62500756  0.84622244     0.08500
C1002       C  0.43367346  0.65256838  0.85209988    -0.13700
H1003       H  0.40940357  0.67904448  0.83959636     0.12400
H1004       H  0.37540707  0.58569928  0.79275795     0.12400
H1005       H  0.41693985  0.57871053  0.82130180     0.12400
H1006       H  0.45059904  0.67186190  0.86782230     0.12400
C1007       C  0.38801424  0.60718086  0.67568499    -0.13700
C1008       C  0.38387861  0.63472580  0.67683699     0.08500
C1009       C  0.40150608  0.66027096  0.65554343    -0.13700
C1010       C  0.42471044  0.65942381  0.63487810    -0.13700
C1011       C  0.43120706  0.63334321  0.63563022     0.08500
C1012       C  0.41168409  0.60650490  0.65518086    -0.13700
H1013       H  0.37491803  0.58747877  0.69237814     0.12400
H1014       H  0.39878184  0.68178762  0.65630685     0.12400
H1015       H  0.43967434  0.68048613  0.62017067     0.12400
H1016       H  0.41671793  0.58647652  0.65660043     0.12400
C1017       C  0.33262955  0.74217722  0.66472468    -0.13700
C1018       C  0.35780029  0.74669126  0.68535994     0.08500
C1019       C  0.38854719  0.77543414  0.68392993    -0.13700
C1020       C  0.39282026  0.80100445  0.66435124    -0.13700
C1021       C  0.36648386  0.79761542  0.64574101     0.08500
C1022       C  0.33721373  0.76718168  0.64450826    -0.13700
H1023       H  0.30898581  0.71982434  0.66521898     0.12400
H1024       H  0.40827879  0.77902707  0.69970159     0.12400
H1025       H  0.41556253  0.82416938  0.66580169     0.12400
H1026       H  0.31680690  0.76367648  0.62976295     0.12400
C1027       C  0.33219591  0.74318486  0.84632645    -0.13700
C1028       C  0.35548483  0.74626408  0.82312159     0.08500
C1029       C  0.38579310  0.77578895  0.82158915    -0.13700
C1030       C  0.39114291  0.80270181  0.84044402    -0.13700
C1031       C  0.36642875  0.80046422  0.86131817     0.08500
C1032       C  0.33767236  0.76999829  0.86527911    -0.13700
H1033       H  0.30877691  0.72074263  0.84838522     0.12400
H1034       H  0.40437123  0.77893665  0.80410308     0.12400
H1035       H  0.41312470  0.82607163  0.83641664     0.12400
H1036       H  0.31799068  0.76788010  0.88080809     0.12400
C1037       C  0.22738437  0.55907755  0.86473738    -0.13700
C1038       C  0.19489968  0.55367973  0.86394218     0.08500
C1039       C  0.18773893  0.57272311  0.84367921    -0.13700
C1040       C  0.21199317  0.59479499  0.82267889    -0.13700
C1041       C  0.24365274  0.59791020  0.82154231     0.08500
C1042       C  0.25140352  0.58077949  0.84370618    -0.13700
H1043       H  0.23350531  0.54463109  0.88009739     0.12400
H1044       H  0.16278116  0.56866531  0.84230687     0.12400
H1045       H  0.20533608  0.60776729  0.80596587     0.12400
H1046       H  0.27567822  0.58297811  0.84380819     0.12400
C1047       C  0.21042830  0.60771979  0.68309957    -0.13700
C1048       C  0.24186836  0.61059906  0.68137639     0.08500
C1049       C  0.24899185  0.59441447  0.65708344    -0.13700
C1050       C  0.22414580  0.57315583  0.63658839    -0.13700
C1051       C  0.19161167  0.56710639  0.64066338     0.08500
C1052       C  0.18525004  0.58584120  0.66288043    -0.13700
H1053       H  0.20456892  0.61998595  0.70190262     0.12400
H1054       H  0.27317141  0.59647346  0.65541464     0.12400
H1055       H  0.22947858  0.55872727  0.61977740     0.12400
H1056       H  0.16025355  0.58112567  0.66677773     0.12400
O1057       O  0.77596559  0.11177943  0.22737137    -0.85700
O1058       O  0.83848171  0.13027823  0.20662090    -0.82700
C1059       C  0.86871193  0.14948126  0.20162733     0.97800
O1060       O  0.88624509  0.17138223  0.22168068    -0.82800
O1061       O  0.86927230  0.21852710  0.21466611    -0.85400
C1062       C  0.84943763  0.22937054  0.21350994     1.02300
O1063       O  0.82624498  0.22067896  0.23363150    -0.78200
O1064       O  0.77933010  0.15869607  0.21652434    -0.78400
C1065       C  0.76723226  0.12858642  0.21110230     1.02200
O1066       O  0.79848265  0.11639170  0.29187149    -0.85700
O1067       O  0.85896030  0.12744462  0.27002181    -0.82800
C1068       C  0.87872719  0.14830020  0.28971176     0.97800
O1069       O  0.88270366  0.17683550  0.29005399    -0.82800
O1070       O  0.87051370  0.22813025  0.28214494    -0.85400
C1071       C  0.84810570  0.22408262  0.30186239     1.02300
O1072       O  0.81927506  0.20024627  0.29881192    -0.78200
O1073       O  0.76906451  0.13980706  0.28198856    -0.78400
C1074       C  0.77453519  0.12081172  0.29845644     1.02200
Cr1075     Cr  0.81885684  0.12475561  0.24932039     1.93700
Cr1076     Cr  0.87390002  0.19635716  0.25230992     1.93200
Cr1077     Cr  0.80098523  0.17897318  0.25740800     1.39100
O1078       O  0.83127116  0.16682034  0.25266390    -1.23400
O1079       O  0.61045913  0.28710812  0.27180096    -0.85700
O1080       O  0.62548681  0.34859161  0.29106329    -0.82700
C1081       C  0.64472479  0.37839434  0.29691103     0.97800
O1082       O  0.66899264  0.39546051  0.27875777    -0.82800
O1083       O  0.71610401  0.37694441  0.28616141    -0.85400
C1084       C  0.73016781  0.36009208  0.28307367     1.02300
O1085       O  0.72086652  0.33808731  0.26196831    -0.78200
O1086       O  0.65860994  0.29055427  0.28072408    -0.78400
C1087       C  0.62824127  0.27854667  0.28699956     1.02200
O1088       O  0.61341711  0.30682563  0.20614345    -0.85700
O1089       O  0.62479276  0.36713030  0.22651768    -0.82800
C1090       C  0.64727811  0.38770151  0.20858193     0.97800
O1091       O  0.67659312  0.39327964  0.21078519    -0.82800
O1092       O  0.72776662  0.38093096  0.21861977    -0.85400
C1093       C  0.72381690  0.35988986  0.19751548     1.02300
O1094       O  0.69858389  0.33177905  0.19842464    -0.78200
O1095       O  0.63841675  0.27933517  0.21654754    -0.78400
C1096       C  0.61817696  0.28319032  0.20026208     1.02200
Cr1097     Cr  0.62194768  0.32835685  0.24860294     1.93700
Cr1098     Cr  0.69480385  0.38338267  0.24843149     1.93200
Cr1099     Cr  0.67802398  0.31232280  0.23989611     1.39100
O1100       O  0.66480258  0.34136456  0.24610175    -1.23400
C1101       C  0.88442253  0.38065804  0.10177728     0.02800
C1102       C  0.85847604  0.38698362  0.10994622    -0.13400
C1103       C  0.83250340  0.36557032  0.12982092     0.00300
C1104       C  0.83267860  0.33828566  0.14196877    -0.11900
C1105       C  0.85783433  0.33122641  0.13423957     0.02800
C1106       C  0.88363919  0.35253922  0.11396701    -0.11300
H1107       H  0.85761258  0.40769277  0.10034917     0.08400
H1108       H  0.81323760  0.32291644  0.15846629     0.05900
H1109       H  0.90310576  0.34724436  0.10757422     0.05700
C1110       C  0.88072682  0.38650769  0.39444610     0.02800
C1111       C  0.85621647  0.38997365  0.37871012    -0.13400
C1112       C  0.83319028  0.36472608  0.35943088     0.00300
C1113       C  0.83394422  0.33548296  0.35697506    -0.11900
C1114       C  0.85881779  0.33194355  0.37128727     0.02800
C1115       C  0.88259915  0.35767619  0.38971614    -0.11300
H1116       H  0.85550239  0.41255214  0.38091232     0.08400
H1117       H  0.81597053  0.31579584  0.34220791     0.05900
H1118       H  0.90246121  0.35516509  0.39975199     0.05700
C1119       C  0.62448912  0.50575334  0.41005397     0.02800
C1120       C  0.61884009  0.47442515  0.40025946    -0.13400
C1121       C  0.64198152  0.47151162  0.38060845     0.00300
C1122       C  0.67034249  0.49985825  0.37068223    -0.11900
C1123       C  0.67315991  0.02715093  0.37709046     0.02800
C1124       C  0.65094943  0.02948705  0.39797636    -0.11300
H1125       H  0.59717420  0.45238037  0.40810667     0.08400
H1126       H  0.68742859  0.49780616  0.35435157     0.05900
H1127       H  0.65547233  0.05343572  0.40547002     0.05700
C1128       C  0.61644325  0.51564446  0.11019750     0.02800
C1129       C  0.63337781  0.03398030  0.12000228    -0.13400
C1130       C  0.66066477  0.03630923  0.13655160     0.00300
C1131       C  0.66284136  0.51236915  0.14928746    -0.11900
C1132       C  0.63528449  0.48356273  0.13932645     0.02800
C1133       C  0.61185928  0.48503562  0.11996806    -0.11300
H1134       H  0.63341972  0.05617620  0.11377603     0.08400
H1135       H  0.68030768  0.51090673  0.16501715     0.05900
H1136       H  0.59116144  0.46235934  0.11180929     0.05700
C1137       C  0.98766450  0.12181103  0.08601263     0.02800
C1138       C  0.52877574  0.15384264  0.10534354    -0.13400
C1139       C  0.52559596  0.17787279  0.12252121     0.00300
C1140       C  0.98986052  0.17076339  0.12612992    -0.11900
C1141       C  0.95938227  0.14581734  0.11535248     0.02800
C1142       C  0.95841251  0.12157779  0.09510447    -0.11300
H1143       H  0.55319916  0.15760010  0.09983750     0.08400
H1144       H  0.99056644  0.18880736  0.14284132     0.05900
H1145       H  0.93474841  0.10216134  0.08685043     0.05700
C1146       C  0.00589875  0.10765697  0.38436779     0.02800
C1147       C  0.54219732  0.14467541  0.37771713    -0.13400
C1148       C  0.54039379  0.16842438  0.35938607     0.00300
C1149       C  0.00466885  0.15567988  0.34662277    -0.11900
C1150       C  0.97471644  0.12902340  0.35614609     0.02800
C1151       C  0.97521880  0.10462757  0.37489222    -0.11300
H1152       H  0.56620915  0.14878423  0.38495380     0.08400
H1153       H  0.00439094  0.17422204  0.33186141     0.05900
H1154       H  0.95200073  0.08390824  0.38212790     0.05700
O1155       O  0.95551978  0.43022985  0.48305634    -0.85700
O1156       O  0.52159600  0.46782307  0.46752106    -0.82700
C1157       C  0.54971768  0.99032132  0.46241494     0.97800
O1158       O  0.55867517  0.01871660  0.47378640    -0.82800
O1159       O  0.52118519  0.04694267  0.45443124    -0.85400
C1160       C  0.49487305  0.04767204  0.44940665     1.02300
O1161       O  0.96594997  0.03278661  0.47285277    -0.78200
O1162       O  0.94414628  0.46435669  0.45872107    -0.78400
C1163       C  0.94152100  0.43645880  0.46083152     1.02200
O1164       O  0.96210604  0.44328420  0.03347051    -0.85700
O1165       O  0.51750247  0.47160239  0.04581169    -0.82800
C1166       C  0.55302849  0.01329494  0.04795293     0.97800
O1167       O  0.55976610  0.03447562  0.02695754    -0.82800
O1168       O  0.51488015  0.05637486  0.03635282    -0.85400
C1169       C  0.48804724  0.05690087  0.03553768     1.02300
O1170       O  0.97891333  0.04391804  0.02158052    -0.78200
O1171       O  0.94471532  0.47862399  0.04003960    -0.78400
C1172       C  0.94405866  0.45265590  0.04787135     1.02200
Cr1173     Cr  0.00356697  0.46888671  0.00664554     1.93700
Cr1174     Cr  0.53071557  0.04252151  0.99853055     1.93200
Cr1175     Cr  0.95754387  0.49758672  0.99735022     1.39100
O1176       O  0.49592282  0.00240968  0.99971836    -1.23400
C1177       C  0.49150770  0.06740332  0.42383606    -0.16800
C1178       C  0.00862942  0.08437057  0.40643589    -0.32000
H1179       H  0.96201085  0.06640989  0.42806549     0.12200
H1180       H  0.54181621  0.09844953  0.41490634     0.12800
C1181       C  0.48231247  0.07909126  0.05632368    -0.16800
C1182       C  0.98460386  0.09551927  0.06384787    -0.32000
H1183       H  0.02881999  0.09693815  0.07642983     0.12200
H1184       H  0.52920156  0.10209111  0.07728469     0.12800
C1185       C  0.59401186  0.51845487  0.08714935    -0.16800
C1186       C  0.57879741  0.02032517  0.07204524    -0.32000
H1187       H  0.60353632  0.54155988  0.07487478     0.12200
H1188       H  0.60100741  0.04400883  0.07066894     0.12800
C1189       C  0.60167919  0.51080301  0.43169092    -0.16800
C1190       C  0.57022667  0.98429091  0.43910337    -0.32000
H1191       H  0.61138320  0.53439103  0.44352364     0.12200
H1192       H  0.55915675  0.96035903  0.42789796     0.12800
C1193       C  0.90419398  0.41385778  0.41495584    -0.16800
C1194       C  0.92079291  0.40990487  0.43867743    -0.32000
H1195       H  0.90621272  0.43763671  0.41176754     0.12200
H1196       H  0.91805244  0.38609344  0.44326069     0.12800
C1197       C  0.91168223  0.40173730  0.07929528    -0.16800
C1198       C  0.92029086  0.43291900  0.07310870    -0.32000
H1199       H  0.92476211  0.39101443  0.06708745     0.12200
H1200       H  0.90822260  0.44433098  0.08581183     0.12800
C1201       C  0.61158582  0.41016982  0.18985546    -0.13700
C1202       C  0.63980628  0.40680414  0.18591353     0.08500
C1203       C  0.66257243  0.42430276  0.16171793    -0.13700
C1204       C  0.65885683  0.44690896  0.14384540    -0.13700
C1205       C  0.63242179  0.45257845  0.14991053     0.08500
C1206       C  0.60799126  0.43307008  0.17200743    -0.13700
H1207       H  0.59353678  0.39682774  0.20821370     0.12400
H1208       H  0.68424262  0.42181922  0.15774136     0.12400
H1209       H  0.67803124  0.46186576  0.12694931     0.12400
H1210       H  0.58767732  0.43742409  0.17729219     0.12400
C1211       C  0.66508053  0.41192943  0.34594239    -0.13700
C1212       C  0.63912146  0.39448471  0.32471632     0.08500
C1213       C  0.61045822  0.39718408  0.32741503    -0.13700
C1214       C  0.60944621  0.41991926  0.34873253    -0.13700
C1215       C  0.63698353  0.43985253  0.36769526     0.08500
C1216       C  0.66380442  0.43399706  0.36755810    -0.13700
H1217       H  0.68729757  0.41003111  0.34437659     0.12400
H1218       H  0.59018461  0.38396281  0.31112239     0.12400
H1219       H  0.58860670  0.42409562  0.34817289     0.12400
H1220       H  0.68525994  0.44887689  0.38207212     0.12400
C1221       C  0.78087123  0.35681952  0.28947844    -0.13700
C1222       C  0.75890116  0.36629343  0.30223828     0.08500
C1223       C  0.76399587  0.37943735  0.33314826    -0.13700
C1224       C  0.78937080  0.38063867  0.35178537    -0.13700
C1225       C  0.80973845  0.36886825  0.33944812     0.08500
C1226       C  0.80606038  0.35830827  0.30774030    -0.13700
H1227       H  0.77812134  0.34742273  0.26541030     0.12400
H1228       H  0.74750645  0.38719155  0.34330656     0.12400
H1229       H  0.79202243  0.38916358  0.37615522     0.12400
H1230       H  0.82209324  0.35008501  0.29733281     0.12400
C1231       C  0.78297570  0.39279266  0.17962777    -0.13700
C1232       C  0.75068279  0.36689025  0.17419453     0.08500
C1233       C  0.74554888  0.34493926  0.14912784    -0.13700
C1234       C  0.77238423  0.34688927  0.13199914    -0.10400
C1235       C  0.80484763  0.37086116  0.13950546     0.08500
C1236       C  0.80986468  0.39467294  0.16247439    -0.13700
H1237       H  0.78780971  0.41006404  0.19882992     0.12400
H1238       H  0.72101723  0.32488447  0.14418584     0.12400
H1239       H  0.76803461  0.32807551  0.11458640     0.12400
H1240       H  0.83472128  0.41297644  0.16905188     0.12400
C1241       C  0.61514106  0.22485324  0.31046854    -0.13700
C1242       C  0.61230147  0.25317986  0.31136248     0.08500
C1243       C  0.59040807  0.25526543  0.33309660    -0.13700
C1244       C  0.56974899  0.22855701  0.35185708    -0.13700
C1245       C  0.56984176  0.19887111  0.34854084     0.08500
C1246       C  0.59380258  0.19767143  0.32884491    -0.13700
H1247       H  0.63185828  0.22279701  0.29369378     0.12400
H1248       H  0.58805645  0.27699549  0.33431698     0.12400
H1249       H  0.55160424  0.23013263  0.36701936     0.12400
H1250       H  0.59411691  0.17500071  0.32563409     0.12400
C1251       C  0.59971051  0.22919877  0.17353830    -0.13700
C1252       C  0.59867382  0.25852135  0.17577569     0.08500
C1253       C  0.57709187  0.26278692  0.15609854    -0.13700
C1254       C  0.55524135  0.23733951  0.13639604    -0.13700
C1255       C  0.55433350  0.20705214  0.13623882     0.08500
C1256       C  0.57766277  0.20365210  0.15399094    -0.13700
H1257       H  0.61627842  0.22525521  0.18823772     0.12400
H1258       H  0.57608071  0.28524995  0.15693142     0.12400
H1259       H  0.53769341  0.24065645  0.12259662     0.12400
H1260       H  0.57730377  0.18051166  0.15452610     0.12400
C1261       C  0.91851089  0.16191059  0.33476107    -0.13700
C1262       C  0.89865576  0.13980335  0.31111411     0.08500
C1263       C  0.89993486  0.11068935  0.30679843    -0.13700
C1264       C  0.92250684  0.10522595  0.32389253    -0.13700
C1265       C  0.94402872  0.12863688  0.34578328     0.08500
C1266       C  0.94078036  0.15635510  0.35187520    -0.13700
H1267       H  0.91796846  0.18434210  0.33907492     0.12400
H1268       H  0.88484589  0.09299145  0.28892817     0.12400
H1269       H  0.92481597  0.08394283  0.31832048     0.12400
H1270       H  0.95723500  0.17493728  0.36844248     0.12400
C1271       C  0.88295799  0.11606822  0.16555934    -0.13700
C1272       C  0.88473502  0.14596334  0.17299816     0.08500
C1273       C  0.90598705  0.17390064  0.15574625    -0.13700
C1274       C  0.92764928  0.17273626  0.13341861    -0.13700
C1275       C  0.92907597  0.14387824  0.12889761     0.08500
C1276       C  0.90526348  0.11504622  0.14366777    -0.13700
H1277       H  0.86656693  0.09429544  0.17876931     0.12400
H1278       H  0.90724109  0.19704508  0.16099618     0.12400
H1279       H  0.94540473  0.19512877  0.12184041     0.12400
H1280       H  0.90596647  0.09255584  0.14067381     0.12400
C1281       C  0.82440639  0.25003327  0.17525709    -0.13700
C1282       C  0.85293451  0.25278458  0.18889553     0.08500
C1283       C  0.88390901  0.27910895  0.18049340    -0.13700
C1284       C  0.88596352  0.30393378  0.16093834    -0.13700
C1285       C  0.85707555  0.30233830  0.14908699     0.08500
C1286       C  0.82649421  0.27416429  0.15511188    -0.13700
H1287       H  0.80030718  0.22951358  0.18085124     0.12400
H1288       H  0.90624994  0.28152732  0.19065463     0.12400
H1289       H  0.90989586  0.32521726  0.15676728     0.12400
H1290       H  0.80384849  0.27144350  0.14541610     0.12400
C1291       C  0.82969753  0.24510621  0.34815955    -0.13700
C1292       C  0.85483607  0.24908417  0.32680184     0.08500
C1293       C  0.88467076  0.27907229  0.32658794    -0.13700
C1294       C  0.88771245  0.30562844  0.34455868    -0.13700
C1295       C  0.86101211  0.30251644  0.36296954     0.08500
C1296       C  0.83275909  0.27161152  0.36604848    -0.13700
H1297       H  0.80660621  0.22221288  0.34926694     0.12400
H1298       H  0.90463226  0.28283623  0.31061528     0.12400
H1299       H  0.90959521  0.32931697  0.34160320     0.12400
H1300       H  0.81186260  0.26873480  0.38011525     0.12400
C1301       C  0.73238087  0.05773013  0.36167154    -0.13700
C1302       C  0.70161471  0.05630370  0.36369276     0.08500
C1303       C  0.69698427  0.07986346  0.34827225    -0.13700
C1304       C  0.72176125  0.10255992  0.32848986    -0.13700
C1305       C  0.75133219  0.10179267  0.32395337     0.08500
C1306       C  0.75705319  0.08027555  0.34191260    -0.13700
H1307       H  0.73651913  0.03998889  0.37382052     0.12400
H1308       H  0.67337306  0.07911219  0.34954853     0.12400
H1309       H  0.71691524  0.11923302  0.31524588     0.12400
H1310       H  0.77985594  0.07956588  0.33935178     0.12400
C1311       C  0.71129877  0.11066252  0.18789302    -0.13700
C1312       C  0.74210920  0.11199738  0.18621346     0.08500
C1313       C  0.74727781  0.09343099  0.16297572    -0.13700
C1314       C  0.72139777  0.07190656  0.14345844    -0.13700
C1315       C  0.68941842  0.06757759  0.14749931     0.08500
C1316       C  0.68496897  0.08836839  0.16877494    -0.13700
H1317       H  0.70681656  0.12477630  0.20579543     0.12400
H1318       H  0.77087868  0.09424017  0.16115088     0.12400
H1319       H  0.72557346  0.05625338  0.12721075     0.12400
H1320       H  0.66059210  0.08530361  0.17268294     0.12400
O1321       O  0.77480639  0.10586286  0.73276123    -0.85700
O1322       O  0.83867854  0.12223927  0.71690166    -0.82700
C1323       C  0.86976374  0.13840326  0.71571264     0.97800
O1324       O  0.88566572  0.16102604  0.73569348    -0.82800
O1325       O  0.87090746  0.20936993  0.72056606    -0.85400
C1326       C  0.85292574  0.22215856  0.71730973     1.02300
O1327       O  0.82824650  0.21471065  0.73550938    -0.78200
O1328       O  0.77856698  0.15281205  0.72079037    -0.78400
C1329       C  0.76623551  0.12254532  0.71610512     1.02200
O1330       O  0.79192361  0.11086371  0.79893952    -0.85700
O1331       O  0.85347327  0.12101696  0.78334222    -0.82800
C1332       C  0.87178306  0.14274259  0.80322286     0.97800
O1333       O  0.87590178  0.17115805  0.80144328    -0.82800
O1334       O  0.86880970  0.22366517  0.78618188    -0.85400
C1335       C  0.84661647  0.22057373  0.80564618     1.02300
O1336       O  0.81757587  0.19714790  0.80250462    -0.78200
O1337       O  0.76549932  0.13684466  0.78683433    -0.78400
C1338       C  0.76850805  0.11655458  0.80386328     1.02200
Cr1339     Cr  0.81562184  0.11826388  0.75803062     1.93700
Cr1340     Cr  0.87191082  0.18896373  0.76081154     1.93200
Cr1341     Cr  0.79990251  0.17446430  0.76130953     1.39100
O1342       O  0.82897021  0.16055442  0.75945805    -1.23400
O1343       O  0.61362042  0.28300750  0.76883436    -0.85700
O1344       O  0.63103966  0.34483072  0.78860416    -0.82700
C1345       C  0.65074125  0.37455294  0.79431635     0.97800
O1346       O  0.67481718  0.39138055  0.77589487    -0.82800
O1347       O  0.72069850  0.37220050  0.78589286    -0.85400
C1348       C  0.73404274  0.35459198  0.78481448     1.02300
O1349       O  0.72451554  0.33143747  0.76483711    -0.78200
O1350       O  0.66040303  0.28566235  0.78195875    -0.78400
C1351       C  0.62984816  0.27449726  0.78642209     1.02200
O1352       O  0.62049654  0.30407742  0.70367926    -0.85700
O1353       O  0.63231817  0.36448930  0.72425425    -0.82800
C1354       C  0.65501250  0.38437186  0.70608303     0.97800
O1355       O  0.68385745  0.38856081  0.70820740    -0.82800
O1356       O  0.73350098  0.37431738  0.71880805    -0.85400
C1357       C  0.72965392  0.35239305  0.69887389     1.02300
O1358       O  0.70437961  0.32440933  0.70024134    -0.78200
O1359       O  0.64261925  0.27435013  0.71626978    -0.78400
C1360       C  0.62422282  0.27969774  0.69848061     1.02200
Cr1361     Cr  0.62766890  0.32492758  0.74617576     1.93700
Cr1362     Cr  0.70070823  0.37839340  0.74700806     1.93200
Cr1363     Cr  0.68201853  0.30633403  0.74120408     1.39100
O1364       O  0.67013573  0.33660348  0.74514319    -1.23400
C1365       C  0.89714637  0.38126325  0.61364808     0.02800
C1366       C  0.86959371  0.38487264  0.62198434    -0.13400
C1367       C  0.84280601  0.36033283  0.63862154     0.00300
C1368       C  0.84425555  0.33304341  0.64869514    -0.11900
C1369       C  0.87160286  0.32921580  0.64191463     0.02800
C1370       C  0.89829041  0.35358261  0.62451136    -0.11300
H1371       H  0.86844029  0.40636980  0.61546568     0.08400
H1372       H  0.82403374  0.31488001  0.66286278     0.05900
H1373       H  0.91934302  0.35055840  0.61870536     0.05700
C1374       C  0.88008133  0.38117291  0.90469772     0.02800
C1375       C  0.85656397  0.38542404  0.88764782    -0.13400
C1376       C  0.83663106  0.36238474  0.86469599     0.00300
C1377       C  0.83896712  0.33418938  0.86027877    -0.11900
C1378       C  0.86168086  0.32912662  0.87697600     0.02800
C1379       C  0.88278702  0.35289506  0.89891027    -0.11300
H1380       H  0.85456649  0.40716163  0.89148082     0.08400
H1381       H  0.82314993  0.31596219  0.84304455     0.05900
H1382       H  0.90033340  0.34883419  0.91182019     0.05700
C1383       C  0.61845443  0.49156320  0.91075087     0.02800
C1384       C  0.61739314  0.46275000  0.89939363    -0.13400
C1385       C  0.64130747  0.46429283  0.87782874     0.00300
C1386       C  0.66604312  0.49472774  0.86729084    -0.11900
C1387       C  0.66482724  0.01996356  0.87946970     0.02800
C1388       C  0.64021355  0.01920025  0.89956230    -0.11300
H1389       H  0.59808772  0.43911764  0.90745120     0.08400
H1390       H  0.68388544  0.49599418  0.84972832     0.05900
H1391       H  0.64224447  0.04209058  0.90730335     0.05700
C1392       C  0.61015605  0.50210242  0.60507262     0.02800
C1393       C  0.63453111  0.02861939  0.62153085    -0.13400
C1394       C  0.65831224  0.03000040  0.64288679     0.00300
C1395       C  0.66158167  0.50785111  0.64360333    -0.11900
C1396       C  0.63651397  0.47689104  0.63478953     0.02800
C1397       C  0.61066638  0.47405226  0.61584010    -0.11300
H1398       H  0.63713369  0.05120579  0.61269258     0.08400
H1399       H  0.68101447  0.50990435  0.65901219     0.05900
H1400       H  0.59128558  0.44991252  0.60892342     0.05700
C1401       C  0.99682423  0.12519761  0.59190378     0.02800
C1402       C  0.53153809  0.15413922  0.59978109    -0.13400
C1403       C  0.53000036  0.17647187  0.62104499     0.00300
C1404       C  0.99260638  0.16665112  0.63794759    -0.11900
C1405       C  0.96444532  0.13704003  0.63067227     0.02800
C1406       C  0.96628005  0.11644202  0.60726866    -0.11300
H1407       H  0.55541260  0.15881799  0.59086379     0.08400
H1408       H  0.99123138  0.18211962  0.65653959     0.05900
H1409       H  0.94411017  0.09382572  0.60159908     0.05700
C1410       C  0.00785845  0.12033831  0.89762554     0.02800
C1411       C  0.53765034  0.14716788  0.88251256    -0.13400
C1412       C  0.53613015  0.16891185  0.86104316     0.00300
C1413       C  0.00090942  0.16354491  0.85786647    -0.11900
C1414       C  0.97273112  0.13656801  0.86997726     0.02800
C1415       C  0.97608323  0.11472809  0.88963985    -0.11300
H1416       H  0.56145326  0.15183465  0.89105083     0.08400
H1417       H  0.99795290  0.17960361  0.84169669     0.05900
H1418       H  0.95402320  0.09437149  0.89945670     0.05700
O1419       O  0.97995363  0.44697679  0.96687040    -0.85700
O1420       O  0.54466552  0.48197775  0.98158603    -0.82700
C1421       C  0.55609087  0.00912233  0.96036954     0.97800
O1422       O  0.54868314  0.03148556  0.96063704    -0.82800
O1423       O  0.51139328  0.06164636  0.96943002    -0.85400
C1424       C  0.48933071  0.04778421  0.94867350     1.02300
O1425       O  0.97090682  0.01998825  0.95616824    -0.78200
O1426       O  0.93717615  0.45333625  0.97651165    -0.78400
C1427       C  0.95041735  0.43932167  0.96148265     1.02200
O1428       O  0.97291894  0.45230971  0.54782761    -0.85700
O1429       O  0.53692400  0.48469018  0.53305045    -0.82800
C1430       C  0.55496087  0.01174324  0.54879856     0.97800
O1431       O  0.55061418  0.03458203  0.53938651    -0.82800
O1432       O  0.51327185  0.06169911  0.52040571    -0.85400
C1433       C  0.48671809  0.05149624  0.53666431     1.02300
O1434       O  0.96089833  0.02136247  0.53883005    -0.78200
O1435       O  0.93191412  0.45437029  0.52548228    -0.78400
C1436       C  0.94297322  0.44502672  0.54781376     1.02200
Cr1437     Cr  0.99695071  0.46053007  0.50657109     1.93700
Cr1438     Cr  0.53291817  0.03713590  0.49722950     1.93200
Cr1439     Cr  0.95496966  0.49280499  0.49676081     1.39100
O1440       O  0.49639317  0.99833220  0.50114063    -1.23400
C1441       C  0.48748384  0.06698173  0.92213983    -0.16800
C1442       C  0.01246567  0.09916998  0.92036820    -0.32000
H1443       H  0.96688659  0.05605744  0.91232922     0.12200
H1444       H  0.53241529  0.10940958  0.93281078     0.12800
C1445       C  0.48227595  0.07307509  0.55977257    -0.16800
C1446       C  0.00079769  0.10399963  0.56759336    -0.32000
H1447       H  0.95899559  0.05972716  0.58091595     0.12200
H1448       H  0.52985560  0.11304622  0.55447603     0.12800
C1449       C  0.58328433  0.49671460  0.58233760    -0.16800
C1450       C  0.57905976  0.01801210  0.57470873    -0.32000
H1451       H  0.56785541  0.47184450  0.57376824     0.12200
H1452       H  0.59280302  0.04262111  0.58425434     0.12800
C1453       C  0.59289715  0.48818703  0.93455324    -0.16800
C1454       C  0.58033015  0.01064036  0.93650124    -0.32000
H1455       H  0.57751819  0.46425546  0.94493382     0.12200
H1456       H  0.59144191  0.03175238  0.92110954     0.12800
C1457       C  0.90052322  0.40645821  0.92881282    -0.16800
C1458       C  0.93094689  0.41317673  0.93790077    -0.32000
H1459       H  0.89051862  0.42128504  0.93848514     0.12200
H1460       H  0.94228473  0.39997815  0.92728017     0.12800
C1461       C  0.92417918  0.40531812  0.59264732    -0.16800
C1462       C  0.91917648  0.42424526  0.57231568    -0.32000
H1463       H  0.94758656  0.40550459  0.59192230     0.12200
H1464       H  0.89507395  0.42232851  0.57101230     0.12800
C1465       C  0.61727418  0.40310127  0.68400588    -0.13700
C1466       C  0.64800995  0.40407346  0.68347817     0.08500
C1467       C  0.67271157  0.42567888  0.66257888    -0.13700
C1468       C  0.66773056  0.44748953  0.64452314    -0.13700
C1469       C  0.63798009  0.44824879  0.64695298     0.08500
C1470       C  0.61231011  0.42501110  0.66588561    -0.13700
H1471       H  0.59760012  0.38654264  0.69964349     0.12400
H1472       H  0.69645931  0.42676088  0.66120050     0.12400
H1473       H  0.68786214  0.46511570  0.62994013     0.12400
H1474       H  0.58928875  0.42529616  0.66836323     0.12400
C1475       C  0.67312848  0.41311853  0.83952624    -0.13700
C1476       C  0.64562759  0.39093518  0.82192668     0.08500
C1477       C  0.61474340  0.38839213  0.82806183    -0.13700
C1478       C  0.61229606  0.41046379  0.84906374    -0.13700
C1479       C  0.64066073  0.43484442  0.86428593     0.08500
C1480       C  0.67056141  0.43455884  0.86087049    -0.13700
H1481       H  0.69706755  0.41511629  0.83538640     0.12400
H1482       H  0.59325489  0.37135640  0.81462367     0.12400
H1483       H  0.58902492  0.41029149  0.85123578     0.12400
H1484       H  0.69265548  0.45280550  0.87275446     0.12400
C1485       C  0.78757230  0.35670504  0.79235795    -0.13700
C1486       C  0.76247431  0.36171668  0.80508585     0.08500
C1487       C  0.76443726  0.37176965  0.83696437    -0.13700
C1488       C  0.78988163  0.37416935  0.85642661    -0.13700
C1489       C  0.81373553  0.36696742  0.84396693     0.08500
C1490       C  0.81306240  0.35969315  0.81142721    -0.13700
H1491       H  0.78706462  0.34970622  0.76766502     0.12400
H1492       H  0.74541029  0.37600154  0.84717076     0.12400
H1493       H  0.78986223  0.37981428  0.88142891     0.12400
H1494       H  0.83154695  0.35474817  0.80100984     0.12400
C1495       C  0.78751913  0.38721119  0.67879048    -0.13700
C1496       C  0.75673049  0.35833453  0.67650730     0.08500
C1497       C  0.75378522  0.33309670  0.65633475    -0.13700
C1498       C  0.78168655  0.33518719  0.64155216    -0.10400
C1499       C  0.81300725  0.36252515  0.64664738     0.08500
C1500       C  0.81552188  0.38927368  0.66393943    -0.13700
H1501       H  0.79050298  0.40719804  0.69397455     0.12400
H1502       H  0.73037452  0.31071521  0.65376442     0.12400
H1503       H  0.77919348  0.31445855  0.62789081     0.12400
H1504       H  0.83945058  0.41059681  0.66813127     0.12400
C1505       C  0.61522518  0.22290293  0.81576668    -0.13700
C1506       C  0.61174909  0.25057379  0.81153597     0.08500
C1507       C  0.58728295  0.25335198  0.82866929    -0.13700
C1508       C  0.56488819  0.22785781  0.84764845    -0.13700
C1509       C  0.56582334  0.19857340  0.84920197     0.08500
C1510       C  0.59216755  0.19683852  0.83442897    -0.13700
H1511       H  0.63401715  0.22035663  0.80270754     0.12400
H1512       H  0.58445288  0.27466962  0.82607998     0.12400
H1513       H  0.54520925  0.23007434  0.85930914     0.12400
H1514       H  0.59340198  0.17452556  0.83526453     0.12400
C1515       C  0.60644088  0.22687871  0.66923080    -0.13700
C1516       C  0.60515568  0.25595820  0.67309640     0.08500
C1517       C  0.58316655  0.26069992  0.65444779    -0.13700
C1518       C  0.56074399  0.23568722  0.63474786    -0.13700
C1519       C  0.55983904  0.20545902  0.63334716     0.08500
C1520       C  0.58391337  0.20178813  0.64946156    -0.13700
H1521       H  0.62344072  0.22268346  0.68296264     0.12400
H1522       H  0.58191476  0.28299293  0.65646638     0.12400
H1523       H  0.54248667  0.23907873  0.62230064     0.12400
H1524       H  0.58356353  0.17863747  0.64883417     0.12400
C1525       C  0.91037524  0.16068095  0.84893436    -0.13700
C1526       C  0.89114406  0.13627657  0.82670123     0.08500
C1527       C  0.89427257  0.10810015  0.82453171    -0.13700
C1528       C  0.91883585  0.10619901  0.84170521    -0.13700
C1529       C  0.94034864  0.13241492  0.86114655     0.08500
C1530       C  0.93472984  0.15875606  0.86595893    -0.13700
H1531       H  0.90825995  0.18246056  0.85156113     0.12400
H1532       H  0.87958017  0.08877269  0.80779070     0.12400
H1533       H  0.92294904  0.08575673  0.83759011     0.12400
H1534       H  0.95109885  0.17920398  0.88091195     0.12400
C1535       C  0.91301432  0.12391697  0.70369835    -0.13700
C1536       C  0.88849728  0.13016013  0.69254920     0.08500
C1537       C  0.88550563  0.13280263  0.65972334    -0.13700
C1538       C  0.90864658  0.13190844  0.63857804    -0.13700
C1539       C  0.93450304  0.12780983  0.65011260     0.08500
C1540       C  0.93567253  0.12253287  0.68266504    -0.13700
H1541       H  0.91568977  0.12183180  0.72895904     0.12400
H1542       H  0.86693897  0.13799275  0.65076551     0.12400
H1543       H  0.90782287  0.13680112  0.61364775     0.12400
H1544       H  0.95571328  0.11985614  0.69206729     0.12400
C1545       C  0.83655780  0.24356081  0.67179229    -0.13700
C1546       C  0.86106043  0.24708267  0.69289224     0.08500
C1547       C  0.89176872  0.27606366  0.69276319    -0.13700
C1548       C  0.89672468  0.30238215  0.67375377    -0.13700
C1549       C  0.87113048  0.29968558  0.65441683     0.08500
C1550       C  0.84175882  0.26938892  0.65233464    -0.13700
H1551       H  0.81284786  0.22128217  0.67137197     0.12400
H1552       H  0.91094043  0.27917849  0.70904826     0.12400
H1553       H  0.91943379  0.32548601  0.67601737     0.12400
H1554       H  0.82176808  0.26651792  0.63732043     0.12400
C1555       C  0.82946613  0.24244561  0.85230570    -0.13700
C1556       C  0.85412208  0.24579822  0.83064097     0.08500
C1557       C  0.88477012  0.27500549  0.83099410    -0.13700
C1558       C  0.88917621  0.30157668  0.84990175    -0.13700
C1559       C  0.86310111  0.29922609  0.86882596     0.08500
C1560       C  0.83394685  0.26889241  0.87122828    -0.13700
H1561       H  0.80579091  0.22015010  0.85303888     0.12400
H1562       H  0.90444517  0.27822644  0.81488079     0.12400
H1563       H  0.91165992  0.32484063  0.84730663     0.12400
H1564       H  0.81337746  0.26665697  0.88542889     0.12400
C1565       C  0.72480812  0.05640052  0.86960707    -0.13700
C1566       C  0.69238245  0.05069391  0.86689616     0.08500
C1567       C  0.68621276  0.07066737  0.84697313    -0.13700
C1568       C  0.71162363  0.09401770  0.82785205    -0.13700
C1569       C  0.74341960  0.09749274  0.82841343     0.08500
C1570       C  0.75005050  0.07953751  0.85058314    -0.13700
H1571       H  0.73009459  0.04130876  0.88490830     0.12400
H1572       H  0.66129223  0.06644912  0.84434627     0.12400
H1573       H  0.70583527  0.10763669  0.81111231     0.12400
H1574       H  0.77440313  0.08203440  0.85198368     0.12400
C1575       C  0.71064478  0.10543118  0.69249829    -0.13700
C1576       C  0.74089273  0.10552282  0.69153675     0.08500
C1577       C  0.74507581  0.08521123  0.66966952    -0.13700
C1578       C  0.71885259  0.06348318  0.65067411    -0.13700
C1579       C  0.68750062  0.06078744  0.65381059     0.08500
C1580       C  0.68391857  0.08293714  0.67388530    -0.13700
H1581       H  0.70687849  0.12079127  0.70947565     0.12400
H1582       H  0.76815670  0.08491318  0.66853404     0.12400
H1583       H  0.72221016  0.04657216  0.63549389     0.12400
H1584       H  0.65993299  0.08100293  0.67713842     0.12400
O1585       O  0.78375869  0.61467561  0.23184634    -0.85700
O1586       O  0.84545461  0.63004155  0.21179829    -0.82700
C1587       C  0.87573827  0.64831007  0.20629067     0.97800
O1588       O  0.89365366  0.67176129  0.22480231    -0.82800
O1589       O  0.87704955  0.71887359  0.21528070    -0.85400
C1590       C  0.85829194  0.73092458  0.21431389     1.02300
O1591       O  0.83583174  0.72369880  0.23503338    -0.78200
O1592       O  0.78839890  0.66182730  0.21926278    -0.78400
C1593       C  0.77609594  0.63163049  0.21449951     1.02200
O1594       O  0.80549095  0.62045575  0.29683162    -0.85700
O1595       O  0.86598007  0.63022191  0.27564349    -0.82800
C1596       C  0.88686080  0.65235811  0.29364048     0.97800
O1597       O  0.89111872  0.68090745  0.29251726    -0.82800
O1598       O  0.87938149  0.73184713  0.28232305    -0.85400
C1599       C  0.85758042  0.72838261  0.30260091     1.02300
O1600       O  0.82872235  0.70437344  0.30068118    -0.78200
O1601       O  0.77676162  0.64403401  0.28502677    -0.78400
C1602       C  0.78120417  0.62471035  0.30212577     1.02200
Cr1603     Cr  0.82610767  0.62712805  0.25428641     1.93700
Cr1604     Cr  0.88204053  0.69854415  0.25396776     1.93200
Cr1605     Cr  0.80980426  0.68253901  0.25978242     1.39100
O1606       O  0.83935579  0.66943455  0.25565576    -1.23400
O1607       O  0.61518530  0.78450241  0.27122894    -0.85700
O1608       O  0.63116539  0.84600795  0.29152466    -0.82700
C1609       C  0.64983791  0.87602330  0.29687711     0.97800
O1610       O  0.67388611  0.89306342  0.27844245    -0.82800
O1611       O  0.72055518  0.87412830  0.28576538    -0.85400
C1612       C  0.73484146  0.85752170  0.28268948     1.02300
O1613       O  0.72559951  0.83519383  0.26186323    -0.78200
O1614       O  0.66306234  0.78731289  0.27985942    -0.78400
C1615       C  0.63276844  0.77563740  0.28625748     1.02200
O1616       O  0.61796675  0.80502481  0.20618245    -0.85700
O1617       O  0.63024085  0.86525663  0.22742588    -0.82800
C1618       C  0.65240666  0.88542399  0.20898112     0.97800
O1619       O  0.68161340  0.89060483  0.21048234    -0.82800
O1620       O  0.73295417  0.87843060  0.21851702    -0.85400
C1621       C  0.72919190  0.85742406  0.19744837     1.02300
O1622       O  0.70377471  0.82944907  0.19806790    -0.78200
O1623       O  0.64307718  0.77728047  0.21522203    -0.78400
C1624       C  0.62252914  0.78139421  0.19960693     1.02200
Cr1625     Cr  0.62704876  0.82610265  0.24879318     1.93700
Cr1626     Cr  0.69973920  0.88080200  0.24813151     1.93200
Cr1627     Cr  0.68279587  0.80963623  0.23926850     1.39100
O1628       O  0.66976420  0.83880093  0.24580184    -1.23400
C1629       C  0.89200331  0.88165279  0.10268612     0.02800
C1630       C  0.86559981  0.88711884  0.11134063    -0.13400
C1631       C  0.84027674  0.86534553  0.13160917     0.00300
C1632       C  0.84167248  0.83866431  0.14367983    -0.11900
C1633       C  0.86725037  0.83247464  0.13535383     0.02800
C1634       C  0.89245357  0.85412842  0.11483966    -0.11300
H1635       H  0.86378917  0.90727654  0.10161572     0.08400
H1636       H  0.82262800  0.82276279  0.16026543     0.05900
H1637       H  0.91224013  0.84941703  0.10809853     0.05700
C1638       C  0.88655215  0.89021289  0.39447653     0.02800
C1639       C  0.86214195  0.89304263  0.37790765    -0.13400
C1640       C  0.84083846  0.86807548  0.35740592     0.00300
C1641       C  0.84323984  0.83980092  0.35425874    -0.11900
C1642       C  0.86780400  0.83680658  0.36983324     0.02800
C1643       C  0.88992558  0.86223056  0.38961413    -0.11300
H1644       H  0.86001173  0.91482476  0.38059982     0.08400
H1645       H  0.82652406  0.82031140  0.33852114     0.05900
H1646       H  0.90961404  0.86013108  0.40064034     0.05700
C1647       C  0.62304480  0.00129915  0.40922641     0.02800
C1648       C  0.61761205  0.97006020  0.39901310    -0.13400
C1649       C  0.64042960  0.96778124  0.37812352     0.00300
C1650       C  0.66755523  0.99653170  0.36714587    -0.11900
C1651       C  0.67618859  0.53086207  0.37973587     0.02800
C1652       C  0.65329237  0.53371783  0.39948422    -0.11300
H1653       H  0.59669497  0.94784740  0.40769902     0.08400
H1654       H  0.68430742  0.99507370  0.34992193     0.05900
H1655       H  0.65781880  0.55780287  0.40642330     0.05700
C1656       C  0.60631671  0.00280591  0.11180623     0.02800
C1657       C  0.64476838  0.54452398  0.12043520    -0.13400
C1658       C  0.66824731  0.54287907  0.13970599     0.00300
C1659       C  0.66034646  0.00762028  0.14508872    -0.11900
C1660       C  0.63365793  0.97693017  0.13808991     0.02800
C1661       C  0.60655264  0.97454382  0.12181746    -0.11300
H1662       H  0.64893169  0.56813911  0.11282417     0.08400
H1663       H  0.68061417  0.00916450  0.15882023     0.05900
H1664       H  0.58594007  0.95058244  0.11636653     0.05700
C1665       C  0.00345626  0.62404624  0.09938144     0.02800
C1666       C  0.52995662  0.65095929  0.10721368    -0.13400
C1667       C  0.52712641  0.67572704  0.12346783     0.00300
C1668       C  0.99704643  0.67062159  0.13600278    -0.11900
C1669       C  0.96864583  0.64258844  0.12578350     0.02800
C1670       C  0.97176871  0.61897447  0.10786036    -0.11300
H1671       H  0.55425468  0.65454636  0.10141015     0.08400
H1672       H  0.99451274  0.68788931  0.15140699     0.05900
H1673       H  0.94958721  0.59681838  0.10108258     0.05700
C1674       C  0.01460645  0.61401965  0.38786518     0.02800
C1675       C  0.54181810  0.64248365  0.37559177    -0.13400
C1676       C  0.54149044  0.66763662  0.35840815     0.00300
C1677       C  0.01594148  0.66559662  0.35432118    -0.11900
C1678       C  0.98557899  0.63771916  0.36011812     0.02800
C1679       C  0.98487714  0.61155349  0.37648568    -0.11300
H1680       H  0.56529278  0.64500632  0.38252459     0.08400
H1681       H  0.01666328  0.68526953  0.34063761     0.05900
H1682       H  0.96130075  0.58981795  0.38041082     0.05700
O1683       O  0.95589727  0.93275119  0.48663156    -0.85700
O1684       O  0.52317952  0.96584691  0.47100927    -0.82700
C1685       C  0.54819215  0.49283697  0.45985479     0.97800
O1686       O  0.55624014  0.52069015  0.47190149    -0.82800
O1687       O  0.51677469  0.54621081  0.45245828    -0.85400
C1688       C  0.49076946  0.54762870  0.44820404     1.02300
O1689       O  0.96757582  0.53075637  0.46810664    -0.78200
O1690       O  0.94438718  0.96679001  0.46209337    -0.78400
C1691       C  0.94255875  0.93918343  0.46393373     1.02200
O1692       O  0.96550066  0.94302161  0.03152673    -0.85700
O1693       O  0.52591901  0.98669241  0.04706056    -0.82800
C1694       C  0.54447064  0.49623343  0.05319878     0.97800
O1695       O  0.55587442  0.52200940  0.03710660    -0.82800
O1696       O  0.51341501  0.54739955  0.04520317    -0.85400
C1697       C  0.48868250  0.55124292  0.04162465     1.02300
O1698       O  0.96809315  0.54038184  0.01768387    -0.78200
O1699       O  0.95140451  0.98033987  0.04120108    -0.78400
C1700       C  0.94932810  0.95342021  0.04761639     1.02200
Cr1701     Cr  0.00593047  0.96728525  0.00340376     1.93700
Cr1702     Cr  0.53358437  0.53786919  0.00768458     1.93200
Cr1703     Cr  0.96313764  0.00023711  0.99877773     1.39100
O1704       O  0.49758948  0.49938309  0.00085575    -1.23400
C1705       C  0.48820522  0.56844297  0.42350534    -0.16800
C1706       C  0.01526177  0.58827778  0.40767885    -0.32000
H1707       H  0.96570187  0.56592582  0.42335491     0.12200
H1708       H  0.53762431  0.59157719  0.40836487     0.12800
C1709       C  0.48247708  0.57287301  0.06279529    -0.16800
C1710       C  0.00808750  0.60041952  0.07923192    -0.32000
H1711       H  0.96168755  0.57910952  0.05672979     0.12200
H1712       H  0.53043821  0.59848775  0.08114153     0.12800
C1713       C  0.57755493  0.99797597  0.09231197    -0.16800
C1714       C  0.56359630  0.49394422  0.07978337    -0.32000
H1715       H  0.55572326  0.97386357  0.09214119     0.12200
H1716       H  0.55280525  0.47098795  0.09235550     0.12800
C1717       C  0.60149627  0.00660022  0.43223811    -0.16800
C1718       C  0.56998407  0.48816372  0.43700083    -0.32000
H1719       H  0.61171291  0.03050835  0.44351817     0.12200
H1720       H  0.55947846  0.46465011  0.42504065     0.12800
C1721       C  0.90814258  0.91723819  0.41619439    -0.16800
C1722       C  0.92356233  0.91306912  0.44080854    -0.32000
H1723       H  0.90963874  0.94078173  0.41308001     0.12200
H1724       H  0.92121219  0.88940792  0.44523747     0.12800
C1725       C  0.91825244  0.90277366  0.07945494    -0.16800
C1726       C  0.92617483  0.93376373  0.07325954    -0.32000
H1727       H  0.93127917  0.89226043  0.06678624     0.12200
H1728       H  0.91432168  0.94506684  0.08652230     0.12800
C1729       C  0.61483797  0.90517275  0.18949892    -0.13700
C1730       C  0.64455416  0.90438537  0.18661122     0.08500
C1731       C  0.66782758  0.92371926  0.16350080    -0.13700
C1732       C  0.66270041  0.94530169  0.14541569    -0.13700
C1733       C  0.63428723  0.94803941  0.15017823     0.08500
C1734       C  0.60975698  0.92691090  0.17138574    -0.13700
H1735       H  0.59637012  0.89037721  0.20699623     0.12400
H1736       H  0.69070214  0.92325149  0.16036114     0.12400
H1737       H  0.68187272  0.96136057  0.12905335     0.12400
H1738       H  0.58784032  0.92890495  0.17562647     0.12400
C1739       C  0.66915662  0.91202229  0.34462132    -0.13700
C1740       C  0.64333506  0.89234559  0.32402668     0.08500
C1741       C  0.61326026  0.89247121  0.32681496    -0.13700
C1742       C  0.61044812  0.91471406  0.34751975    -0.13700
C1743       C  0.63752280  0.93658899  0.36603149     0.08500
C1744       C  0.66603272  0.93338608  0.36582931    -0.13700
H1745       H  0.69247599  0.91220717  0.34302040     0.12400
H1746       H  0.59303722  0.87749828  0.31101484     0.12400
H1747       H  0.58837267  0.91684568  0.34688610     0.12400
H1748       H  0.68726793  0.94986182  0.37990154     0.12400
C1749       C  0.78849090  0.85976717  0.28753862    -0.13700
C1750       C  0.76400924  0.86501531  0.30147199     0.08500
C1751       C  0.76726572  0.87578187  0.33314223    -0.13700
C1752       C  0.79355252  0.87873152  0.35136349    -0.13700
C1753       C  0.81671021  0.87121990  0.33779792     0.08500
C1754       C  0.81471521  0.86308056  0.30546058    -0.13700
H1755       H  0.78690945  0.85229068  0.26287024     0.12400
H1756       H  0.74869107  0.88021176  0.34412983     0.12400
H1757       H  0.79480826  0.88511142  0.37630947     0.12400
H1758       H  0.83277615  0.85791603  0.29439298     0.12400
C1759       C  0.78803016  0.89170908  0.17857989    -0.13700
C1760       C  0.75636532  0.86423489  0.17450916     0.08500
C1761       C  0.75228186  0.84083541  0.15132056    -0.13700
C1762       C  0.77958063  0.84319487  0.13480344    -0.10400
C1763       C  0.81154546  0.86904633  0.14096923     0.08500
C1764       C  0.81543216  0.89404715  0.16195853    -0.13700
H1765       H  0.79206775  0.91016868  0.19628358     0.12400
H1766       H  0.72830272  0.81949055  0.14744011     0.12400
H1767       H  0.77609514  0.82350278  0.11889336     0.12400
H1768       H  0.83991360  0.91392160  0.16744045     0.12400
C1769       C  0.61680415  0.72087671  0.30880446    -0.13700
C1770       C  0.61658833  0.75053878  0.31075943     0.08500
C1771       C  0.59633609  0.75421299  0.33337608    -0.13700
C1772       C  0.57452632  0.72783483  0.35191321    -0.13700
C1773       C  0.57197912  0.69705462  0.34760234     0.08500
C1774       C  0.59443081  0.69413026  0.32708376    -0.13700
H1775       H  0.63214964  0.71757767  0.29127000     0.12400
H1776       H  0.59597449  0.77697339  0.33531252     0.12400
H1777       H  0.55755940  0.73070200  0.36769811     0.12400
H1778       H  0.59267124  0.67057916  0.32312349     0.12400
C1779       C  0.60419477  0.72830939  0.17089568    -0.13700
C1780       C  0.60226261  0.75699104  0.17511701     0.08500
C1781       C  0.57892420  0.76070379  0.15763083    -0.13700
C1782       C  0.55634647  0.73525848  0.13831752    -0.13700
C1783       C  0.55625378  0.70534717  0.13649030     0.08500
C1784       C  0.58136270  0.70270893  0.15184694    -0.13700
H1785       H  0.62215599  0.72482614  0.18376870     0.12400
H1786       H  0.57713518  0.78268855  0.15993805     0.12400
H1787       H  0.53774470  0.73832716  0.12615535     0.12400
H1788       H  0.58194345  0.68003383  0.15106329     0.12400
C1789       C  0.92898382  0.66936670  0.33644974    -0.13700
C1790       C  0.90797772  0.64549589  0.31467086     0.08500
C1791       C  0.90945646  0.61642717  0.31154503    -0.13700
C1792       C  0.93310581  0.61244522  0.32825606    -0.13700
C1793       C  0.95549382  0.63741017  0.34838588     0.08500
C1794       C  0.95226956  0.66528769  0.35319473    -0.13700
H1795       H  0.92832854  0.69187486  0.33970583     0.12400
H1796       H  0.89353595  0.59753147  0.29498212     0.12400
H1797       H  0.93526063  0.59087220  0.32391732     0.12400
H1798       H  0.96907170  0.68482156  0.36876985     0.12400
C1799       C  0.89331791  0.61319908  0.17716652    -0.13700
C1800       C  0.89129354  0.64189692  0.17886271     0.08500
C1801       C  0.90896056  0.66692719  0.15713383    -0.13700
C1802       C  0.93097490  0.66472167  0.13596306    -0.13700
C1803       C  0.93652710  0.63804315  0.13715056     0.08500
C1804       C  0.91608375  0.61132076  0.15643642    -0.13700
H1805       H  0.87975487  0.59369653  0.19394747     0.12400
H1806       H  0.90743117  0.68910729  0.15807986     0.12400
H1807       H  0.94635306  0.68549377  0.12107155     0.12400
H1808       H  0.92010234  0.59064892  0.15790404     0.12400
C1809       C  0.83445126  0.75042128  0.17377164    -0.13700
C1810       C  0.86245682  0.75415278  0.18935499     0.08500
C1811       C  0.89342034  0.78145846  0.18280966    -0.13700
C1812       C  0.89571756  0.80630138  0.16314230    -0.13700
C1813       C  0.86711018  0.80370048  0.14948844     0.08500
C1814       C  0.83684880  0.77463386  0.15357958    -0.13700
H1815       H  0.81046332  0.72918975  0.17806781     0.12400
H1816       H  0.91534421  0.78460099  0.19458735     0.12400
H1817       H  0.91934598  0.82837185  0.16040775     0.12400
H1818       H  0.81454662  0.77146300  0.14259376     0.12400
C1819       C  0.84066189  0.75004226  0.34938401    -0.13700
C1820       C  0.86483783  0.75414363  0.32674928     0.08500
C1821       C  0.89386572  0.78468946  0.32458720    -0.13700
C1822       C  0.89690387  0.81145348  0.34214149    -0.13700
C1823       C  0.87102777  0.80795206  0.36206583     0.08500
C1824       C  0.84371365  0.77676253  0.36683585    -0.13700
H1825       H  0.81819458  0.72675304  0.35189200     0.12400
H1826       H  0.91299658  0.78858167  0.30747017     0.12400
H1827       H  0.91790185  0.83543798  0.33777504     0.12400
H1828       H  0.82335583  0.77370047  0.38189713     0.12400
C1829       C  0.73596641  0.56102130  0.36492251    -0.13700
C1830       C  0.70517447  0.55968495  0.36592920     0.08500
C1831       C  0.70112247  0.58296701  0.34918312    -0.13700
C1832       C  0.72660722  0.60552449  0.32971026    -0.13700
C1833       C  0.75653785  0.60512225  0.32675539     0.08500
C1834       C  0.76138278  0.58349788  0.34554918    -0.13700
H1835       H  0.73972808  0.54344293  0.37784452     0.12400
H1836       H  0.67750883  0.58223927  0.34939584     0.12400
H1837       H  0.72219247  0.62201705  0.31567129     0.12400
H1838       H  0.78426621  0.58282084  0.34413108     0.12400
C1839       C  0.72384992  0.61899399  0.18667420    -0.13700
C1840       C  0.75175173  0.61513302  0.18927810     0.08500
C1841       C  0.75446944  0.59214902  0.17002566    -0.13700
C1842       C  0.72842617  0.57123145  0.15057781    -0.13700
C1843       C  0.69868680  0.57208875  0.15092099     0.08500
C1844       C  0.69718811  0.59730422  0.16770931    -0.13700
H1845       H  0.72152068  0.63684769  0.20130643     0.12400
H1846       H  0.77606715  0.58924051  0.17131937     0.12400
H1847       H  0.73041876  0.55240407  0.13731309     0.12400
H1848       H  0.67456712  0.59846630  0.16833410     0.12400
O1849       O  0.77504159  0.60857251  0.72593585    -0.85700
O1850       O  0.83881616  0.62389125  0.71005131    -0.82700
C1851       C  0.86997372  0.63899986  0.70960953     0.97800
O1852       O  0.88580421  0.66115411  0.73002858    -0.82800
O1853       O  0.87154167  0.71019373  0.71616910    -0.85400
C1854       C  0.85383117  0.72338266  0.71377277     1.02300
O1855       O  0.83003228  0.71674038  0.73284355    -0.78200
O1856       O  0.77886649  0.65621385  0.71739847    -0.78400
C1857       C  0.76669310  0.62630557  0.71075122     1.02200
O1858       O  0.79113893  0.61040035  0.79225000    -0.85700
O1859       O  0.85242215  0.62033595  0.77629859    -0.82800
C1860       C  0.87137662  0.64123156  0.79647850     0.97800
O1861       O  0.87647381  0.67011237  0.79591382    -0.82800
O1862       O  0.87097149  0.72444386  0.78191083    -0.85400
C1863       C  0.84933963  0.72207252  0.80174697     1.02300
O1864       O  0.82021912  0.69850861  0.79947616    -0.78200
O1865       O  0.76672667  0.63904221  0.78324502    -0.78400
C1866       C  0.76900683  0.61755716  0.79888946     1.02200
Cr1867     Cr  0.81527841  0.61913298  0.75133126     1.93700
Cr1868     Cr  0.87271321  0.68920527  0.75589170     1.93200
Cr1869     Cr  0.80132961  0.67652406  0.75804901     1.39100
O1870       O  0.82953072  0.66156088  0.75459388    -1.23400
O1871       O  0.60685910  0.77431364  0.77614126    -0.85700
O1872       O  0.62538663  0.83676229  0.79602083    -0.82700
C1873       C  0.64452501  0.86684153  0.80050887     0.97800
O1874       O  0.66763117  0.88337053  0.78109664    -0.82800
O1875       O  0.71371555  0.86451364  0.79108823    -0.85400
C1876       C  0.72732571  0.84715964  0.78997521     1.02300
O1877       O  0.71778974  0.82366467  0.77029955    -0.78200
O1878       O  0.65379767  0.77597030  0.78659328    -0.78400
C1879       C  0.62320879  0.76423830  0.79153773     1.02200
O1880       O  0.61203943  0.79539542  0.71121242    -0.85700
O1881       O  0.62478630  0.85603727  0.73155477    -0.82800
C1882       C  0.64694982  0.87545489  0.71257008     0.97800
O1883       O  0.67566591  0.87916407  0.71364313    -0.82800
O1884       O  0.72655313  0.86667541  0.72426975    -0.85400
C1885       C  0.72291009  0.84519072  0.70395360     1.02300
O1886       O  0.69785607  0.81704580  0.70528105    -0.78200
O1887       O  0.63602321  0.76661461  0.72108329    -0.78400
C1888       C  0.61640981  0.77162350  0.70477265     1.02200
Cr1889     Cr  0.62060223  0.81644253  0.75353731     1.93700
Cr1890     Cr  0.69335920  0.87010439  0.75238021     1.93200
Cr1891     Cr  0.67539752  0.79824020  0.74628052     1.39100
O1892       O  0.66308163  0.82815946  0.75112708    -1.23400
C1893       C  0.89209198  0.88225815  0.61556269     0.02800
C1894       C  0.86350738  0.88443710  0.62316204    -0.13400
C1895       C  0.83657220  0.85867594  0.63877281     0.00300
C1896       C  0.83884859  0.83150288  0.64780039    -0.11900
C1897       C  0.86708263  0.82913699  0.64125101     0.02800
C1898       C  0.89387678  0.85476170  0.62541222    -0.11300
H1899       H  0.86193772  0.90581538  0.61697886     0.08400
H1900       H  0.81871420  0.81239560  0.66127585     0.05900
H1901       H  0.91567752  0.85287872  0.61999073     0.05700
C1902       C  0.87892789  0.88077563  0.90512783     0.02800
C1903       C  0.85396654  0.88368448  0.88928201    -0.13400
C1904       C  0.83490767  0.86106930  0.86562184     0.00300
C1905       C  0.83958961  0.83450844  0.85912066    -0.11900
C1906       C  0.86364029  0.83058173  0.87455356     0.02800
C1907       C  0.88376992  0.85395254  0.89740698    -0.11300
H1908       H  0.85018928  0.90417237  0.89453745     0.08400
H1909       H  0.82439294  0.81656973  0.84137412     0.05900
H1910       H  0.90231776  0.85071796  0.90940394     0.05700
C1911       C  0.61407502  0.98900748  0.91041484     0.02800
C1912       C  0.61286173  0.95976027  0.90044485    -0.13400
C1913       C  0.63737556  0.96050026  0.88017647     0.00300
C1914       C  0.66309754  0.99065836  0.86997475    -0.11900
C1915       C  0.66781876  0.52364326  0.87807296     0.02800
C1916       C  0.64393479  0.52221106  0.89970000    -0.11300
H1917       H  0.59289685  0.93646117  0.90846059     0.08400
H1918       H  0.68152588  0.99137955  0.85348509     0.05900
H1919       H  0.64606359  0.54491721  0.90811134     0.05700
C1920       C  0.60867364  0.99790261  0.61071893     0.02800
C1921       C  0.63587607  0.53346018  0.61477063    -0.13400
C1922       C  0.66186149  0.53622086  0.63389578     0.00300
C1923       C  0.65563897  0.00092069  0.65383599    -0.11900
C1924       C  0.63066205  0.97054012  0.64349953     0.02800
C1925       C  0.60701325  0.96903699  0.62223809    -0.11300
H1926       H  0.63649297  0.55550547  0.60698856     0.08400
H1927       H  0.67361661  0.00195028  0.67061420     0.05900
H1928       H  0.58780180  0.94534276  0.61404393     0.05700
C1929       C  0.99814461  0.62445934  0.58693686     0.02800
C1930       C  0.52552028  0.65038575  0.60146713    -0.13400
C1931       C  0.52296446  0.67185172  0.62318617     0.00300
C1932       C  0.99331082  0.66549267  0.63309785    -0.11900
C1933       C  0.96518854  0.63581560  0.62570994     0.02800
C1934       C  0.96736430  0.61544033  0.60213664    -0.11300
H1935       H  0.54975908  0.65520345  0.59359544     0.08400
H1936       H  0.99174434  0.68084295  0.65169811     0.05900
H1937       H  0.94535812  0.59274031  0.59629590     0.05700
C1938       C  0.00481309  0.61392805  0.89039344     0.02800
C1939       C  0.52545122  0.62719869  0.87628786    -0.13400
C1940       C  0.52710198  0.65333197  0.85886426     0.00300
C1941       C  0.99874686  0.65455320  0.84637123    -0.11900
C1942       C  0.97041477  0.62889874  0.85980347     0.02800
C1943       C  0.97326835  0.60838090  0.88163161    -0.11300
H1944       H  0.54808604  0.62817377  0.88369540     0.08400
H1945       H  0.99609554  0.66999972  0.82916145     0.05900
H1946       H  0.95104907  0.58925867  0.89258535     0.05700
O1947       O  0.98002703  0.94656862  0.96469272    -0.85700
O1948       O  0.54399512  0.98649873  0.98084672    -0.82700
C1949       C  0.56119510  0.50836896  0.96625830     0.97800
O1950       O  0.55635255  0.53213480  0.97060470    -0.82800
O1951       O  0.52089037  0.56331903  0.97925269    -0.85400
C1952       C  0.50270611  0.55392167  0.95504723     1.02300
O1953       O  0.96710019  0.51647632  0.95423882    -0.78200
O1954       O  0.93938340  0.95609803  0.97619891    -0.78400
C1955       C  0.95080879  0.94058133  0.96045982     1.02200
O1956       O  0.96978589  0.95383083  0.55221097    -0.85700
O1957       O  0.53955932  0.98385154  0.53592452    -0.82800
C1958       C  0.55199033  0.51263683  0.54601488     0.97800
O1959       O  0.54673059  0.53504016  0.53714037    -0.82800
O1960       O  0.50839551  0.56090925  0.51840046    -0.85400
C1961       C  0.48244658  0.54973909  0.53567039     1.02300
O1962       O  0.96337168  0.52053230  0.53460199    -0.78200
O1963       O  0.92952148  0.95524899  0.52781952    -0.78400
C1964       C  0.93974083  0.94613885  0.55088699     1.02200
Cr1965     Cr  0.99595820  0.96273533  0.51198072     1.93700
Cr1966     Cr  0.52901537  0.53738356  0.49512834     1.93200
Cr1967     Cr  0.95361662  0.99441746  0.50054963     1.39100
O1968       O  0.49300312  0.49817852  0.49855943    -1.23400
C1969       C  0.50964711  0.57847587  0.93024267    -0.16800
C1970       C  0.00875304  0.59427829  0.91546912    -0.32000
H1971       H  0.96325252  0.55083395  0.90833479     0.12200
H1972       H  0.46852538  0.54913691  0.90199405     0.12800
C1973       C  0.47807152  0.57046796  0.55975422    -0.16800
C1974       C  0.00264746  0.60349840  0.56257705    -0.32000
H1975       H  0.96135551  0.55907050  0.57601320     0.12200
H1976       H  0.52461054  0.61185606  0.55311959     0.12800
C1977       C  0.58408065  0.99408638  0.58595987    -0.16800
C1978       C  0.57719691  0.51989013  0.57103552    -0.32000
H1979       H  0.56909433  0.96963914  0.57620972     0.12200
H1980       H  0.59135940  0.54490056  0.57944592     0.12800
C1981       C  0.58855301  0.98711668  0.93326658    -0.16800
C1982       C  0.58717775  0.51253644  0.94315756    -0.32000
H1983       H  0.57572328  0.96526994  0.94763923     0.12200
H1984       H  0.60109767  0.53636281  0.93237191     0.12800
C1985       C  0.89902359  0.90619215  0.92956446    -0.16800
C1986       C  0.93022264  0.91437363  0.93718937    -0.32000
H1987       H  0.88832203  0.91991755  0.94039816     0.12200
H1988       H  0.94180100  0.90197949  0.92536443     0.12800
C1989       C  0.91985376  0.90746730  0.59626737    -0.16800
C1990       C  0.91489106  0.92510462  0.57452808    -0.32000
H1991       H  0.94390444  0.90909300  0.59752187     0.12200
H1992       H  0.89029982  0.92173499  0.57151432     0.12800
C1993       C  0.60985899  0.89594742  0.69226577    -0.13700
C1994       C  0.63988401  0.89552582  0.69045641     0.08500
C1995       C  0.66428696  0.91651271  0.66894721    -0.13700
C1996       C  0.65987558  0.93907156  0.65157770    -0.13700
C1997       C  0.63094279  0.94114287  0.65516457     0.08500
C1998       C  0.60543729  0.91860627  0.67474816    -0.13700
H1999       H  0.59046805  0.87996376  0.70846040     0.12400
H2000       H  0.68751206  0.91661247  0.66662430     0.12400
H2001       H  0.67990904  0.95627475  0.63662173     0.12400
H2002       H  0.58308408  0.91999633  0.67813938     0.12400
C2003       C  0.66727154  0.90616630  0.84506342    -0.13700
C2004       C  0.63969411  0.88407382  0.82748990     0.08500
C2005       C  0.60936404  0.88311413  0.83226347    -0.13700
C2006       C  0.60757082  0.90634666  0.85206981    -0.13700
C2007       C  0.63604916  0.93043653  0.86740997     0.08500
C2008       C  0.66535790  0.92887051  0.86518329    -0.13700
H2009       H  0.69084007  0.90712018  0.84173654     0.12400
H2010       H  0.58792062  0.86636821  0.81860336     0.12400
H2011       H  0.58477900  0.90720034  0.85322432     0.12400
H2012       H  0.68752729  0.94690068  0.87712009     0.12400
C2013       C  0.78326598  0.85450082  0.79523713    -0.13700
C2014       C  0.75649543  0.85557629  0.80948476     0.08500
C2015       C  0.75784707  0.86355684  0.84192363    -0.13700
C2016       C  0.78461156  0.86768615  0.86037265    -0.13700
C2017       C  0.81036881  0.86439869  0.84630523     0.08500
C2018       C  0.81007199  0.85930882  0.81332722    -0.13700
H2019       H  0.78310998  0.84922066  0.77009039     0.12400
H2020       H  0.73748679  0.86481430  0.85323191     0.12400
H2021       H  0.78426974  0.87153956  0.88574727     0.12400
H2022       H  0.82993477  0.85732481  0.80177564     0.12400
C2023       C  0.78006974  0.88178275  0.68261888    -0.13700
C2024       C  0.74983895  0.85219364  0.68082053     0.08500
C2025       C  0.74731252  0.82777687  0.65971105    -0.13700
C2026       C  0.77517321  0.83149905  0.64328185    -0.10400
C2027       C  0.80616774  0.85959274  0.64777495     0.08500
C2028       C  0.80804619  0.88543301  0.66622729    -0.13700
H2029       H  0.78275494  0.90121660  0.69846147     0.12400
H2030       H  0.72435087  0.80488243  0.65745972     0.12400
H2031       H  0.77305690  0.81136416  0.62884640     0.12400
H2032       H  0.83163841  0.90727643  0.67013336     0.12400
C2033       C  0.60334020  0.70700195  0.81000995    -0.13700
C2034       C  0.60526918  0.73752450  0.81447554     0.08500
C2035       C  0.58552932  0.74082663  0.83798023    -0.13700
C2036       C  0.56269242  0.71371991  0.85527313    -0.13700
C2037       C  0.55850786  0.68251310  0.84893856     0.08500
C2038       C  0.57994369  0.67958044  0.82702841    -0.13700
H2039       H  0.61801061  0.70383166  0.79161482     0.12400
H2040       H  0.58651006  0.76406875  0.84172427     0.12400
H2041       H  0.54629750  0.71659781  0.87183706     0.12400
H2042       H  0.57675434  0.65575067  0.82119532     0.12400
C2043       C  0.59729237  0.71886961  0.67506734    -0.13700
C2044       C  0.59693432  0.74836557  0.67928381     0.08500
C2045       C  0.57579712  0.75429442  0.66053887    -0.13700
C2046       C  0.55366099  0.73024781  0.63988646    -0.13700
C2047       C  0.55217687  0.69979883  0.63761536     0.08500
C2048       C  0.57504771  0.69474720  0.65434679    -0.13700
H2049       H  0.61345904  0.71369070  0.68904381     0.12400
H2050       H  0.57522369  0.77691857  0.66291756     0.12400
H2051       H  0.53625904  0.73464955  0.62707928     0.12400
H2052       H  0.57407880  0.67131651  0.65318609     0.12400
C2053       C  0.90851767  0.65480883  0.84308289    -0.13700
C2054       C  0.89035474  0.63292030  0.81860865     0.08500
C2055       C  0.89420920  0.60550905  0.81281127    -0.13700
C2056       C  0.91826931  0.60197717  0.82899878    -0.13700
C2057       C  0.93843388  0.62564027  0.85126384     0.08500
C2058       C  0.93239135  0.65119361  0.85925084    -0.13700
H2059       H  0.90586881  0.67596841  0.84827489     0.12400
H2060       H  0.88054721  0.58825440  0.79406105     0.12400
H2061       H  0.92303439  0.58243333  0.82221563     0.12400
H2062       H  0.94804508  0.66984937  0.87617536     0.12400
C2063       C  0.91531964  0.62701051  0.69908477    -0.13700
C2064       C  0.88896164  0.62996518  0.68718701     0.08500
C2065       C  0.88411390  0.62815835  0.65414634    -0.13700
C2066       C  0.90735502  0.62669929  0.63336295    -0.13700
C2067       C  0.93520214  0.62642325  0.64551379     0.08500
C2068       C  0.93796031  0.62496525  0.67854083    -0.13700
H2069       H  0.91939290  0.62800600  0.72446197     0.12400
H2070       H  0.86396015  0.63043428  0.64444827     0.12400
H2071       H  0.90496088  0.62833085  0.60799878     0.12400
H2072       H  0.95926584  0.62494367  0.68849137     0.12400
C2073       C  0.83570593  0.74349822  0.66899589    -0.13700
C2074       C  0.86103590  0.74778302  0.68934411     0.08500
C2075       C  0.89106121  0.77736734  0.68931157    -0.13700
C2076       C  0.89448322  0.80356916  0.67118360    -0.13700
C2077       C  0.86796198  0.80009701  0.65280704     0.08500
C2078       C  0.83936208  0.76926732  0.65043379    -0.13700
H2079       H  0.81244916  0.72072018  0.66872675     0.12400
H2080       H  0.91073621  0.78100568  0.70518023     0.12400
H2081       H  0.91665959  0.82711006  0.67354726     0.12400
H2082       H  0.81877944  0.76582721  0.63599902     0.12400
C2083       C  0.83530962  0.74397106  0.85079016    -0.13700
C2084       C  0.85758078  0.74830179  0.82600429     0.08500
C2085       C  0.88615130  0.77915536  0.82269561    -0.13700
C2086       C  0.89057342  0.80575184  0.84167744    -0.13700
C2087       C  0.86678017  0.80191307  0.86459225     0.08500
C2088       C  0.83988464  0.77046707  0.86986037    -0.13700
H2089       H  0.81324965  0.72052812  0.85421765     0.12400
H2090       H  0.90384309  0.78336778  0.80386877     0.12400
H2091       H  0.91098631  0.82986455  0.83651374     0.12400
H2092       H  0.82081555  0.76703105  0.88688146     0.12400
C2093       C  0.72745857  0.56018509  0.86717000    -0.13700
C2094       C  0.69496730  0.55453390  0.86527140     0.08500
C2095       C  0.68820359  0.57371407  0.84482588    -0.13700
C2096       C  0.71299564  0.59613153  0.82452315    -0.13700
C2097       C  0.74467456  0.59928276  0.82425430     0.08500
C2098       C  0.75200474  0.58218861  0.84678842    -0.13700
H2099       H  0.73316204  0.54554993  0.88269860     0.12400
H2100       H  0.66321644  0.56942051  0.84266922     0.12400
H2101       H  0.70672708  0.60915860  0.80750332     0.12400
H2102       H  0.77631690  0.58451849  0.84753179     0.12400
C2103       C  0.71118744  0.60942631  0.68681521    -0.13700
C2104       C  0.74210693  0.61095071  0.68515468     0.08500
C2105       C  0.74774333  0.59329891  0.66125816    -0.13700
C2106       C  0.72224136  0.57239712  0.64107417    -0.13700
C2107       C  0.69013011  0.56768998  0.64507204     0.08500
C2108       C  0.68519148  0.58767302  0.66701150    -0.13700
H2109       H  0.70630628  0.62279788  0.70522952     0.12400
H2110       H  0.77137891  0.59417700  0.65948066     0.12400
H2111       H  0.72671684  0.55721792  0.62445503     0.12400
H2112       H  0.66066654  0.58423800  0.67091670     0.12400
loop_ 
_geom_bond_atom_site_label_1 
_geom_bond_atom_site_label_2 
_geom_bond_distance 
_geom_bond_site_symmetry_2 
_ccdc_geom_bond_type 
O1          Cr19   2.013       .  S
O1            C9   1.268       .  A
O2          Cr19   1.971       .  S
O2            C3   1.258       .  A
C3            O4   1.267       .  A
C3          C216   1.463       .  S
O4          Cr20   2.001       .  S
O5          Cr20   1.984       .  S
O5            C6   1.260       .  A
C6            O7   1.266       .  A
C6          C226   1.476       .  S
O7          Cr21   2.004       .  S
O8          Cr21   1.981       .  S
O8            C9   1.259       .  A
C9          C256   1.476       .  S
O10         Cr19   1.977       .  S
O10          C18   1.260       .  A
O11         Cr19   2.018       .  S
O11          C12   1.266       .  A
C12          O13   1.263       .  A
C12         C206   1.493       .  S
O13         Cr20   1.989       .  S
O14         Cr20   2.007       .  S
O14          C15   1.265       .  A
C15          O16   1.261       .  A
C15         C236   1.484       .  S
O16         Cr21   1.980       .  S
O17         Cr21   2.003       .  S
O17          C18   1.264       .  A
C18         C249   1.478       .  S
Cr19         O22   1.777       .  S
Cr20         O22   1.775       .  S
Cr21         O22   1.776       .  S
O23         Cr41   2.003       .  S
O23          C31   1.269       .  A
O24         Cr41   1.992       .  S
O24          C25   1.262       .  A
C25          O26   1.266       .  A
C25         C156   1.482       .  S
O26         Cr42   2.008       .  S
O27         Cr42   1.981       .  S
O27          C28   1.259       .  A
C28          O29   1.265       .  A
C28         C166   1.469       .  S
O29         Cr43   2.002       .  S
O30         Cr43   1.978       .  S
O30          C31   1.261       .  A
C31         C186   1.469       .  S
O32         Cr41   1.989       .  S
O32          C40   1.261       .  A
O33         Cr41   2.001       .  S
O33          C34   1.264       .  A
C34          O35   1.261       .  A
C34         C146   1.476       .  S
O35         Cr42   1.972       .  S
O36         Cr42   2.018       .  S
O36          C37   1.267       .  A
C37          O38   1.262       .  A
C37         C176   1.486       .  S
O38         Cr43   1.980       .  S
O39         Cr43   2.007       .  S
O39          C40   1.262       .  A
C40         C196   1.486       .  S
Cr41         O44   1.773       .  S
Cr42         O44   1.772       .  S
Cr43         O44   1.778       .  S
C45          C46   1.419       .  A
C45          C50   1.418       .  A
C45         C141   1.502       .  S
C46          C47   1.403       .  A
C46          H51   1.080       .  S
C47         C179   1.480       .  S
C47          C48   1.394       .  A
C48          C49   1.398       .  A
C48          H52   1.085       .  S
C49         C229   1.491       .  S
C49          C50   1.410       .  A
C50          H53   1.083       .  S
C54          C55   1.409       .  A
C54          C59   1.420       .  A
C54         C137   1.492       .  S
C55          C56   1.399       .  A
C55          H60   1.084       .  S
C56         C169   1.474       .  S
C56          C57   1.395       .  A
C57          C58   1.395       .  A
C57          H61   1.085       .  S
C58         C239   1.480       .  S
C58          C59   1.406       .  A
C59          H62   1.081       .  S
C63          C64   1.428       .  A
C63         C596   1.405       .  A
C63         C133   1.499       .  S
C64          C65   1.417       .  A
C64          H69   1.080       .  S
C65         C159   1.495       .  S
C65          C66   1.399       .  A
C66         C595   1.394       .  A
C66          H70   1.085       .  S
C67         C246   1.476       .  S
C67          C68   1.400       .  A
C67         C594   1.392       .  A
C68         C591   1.409       .  A
C68          H71   1.084       .  S
C72          C77   1.409       .  A
C72         C601   1.424       .  A
C72         C129   1.494       .  S
C73          C74   1.410       .  A
C73         C600   1.422   1_545  A
C73          H78   1.082       .  S
C74         C259   1.486       .  S
C74         C603   1.396       .  A
C75          C76   1.392       .  A
C75         C602   1.397       .  A
C75          H79   1.085       .  S
C76         C149   1.475       .  S
C76          C77   1.398       .  A
C77          H80   1.084       .  S
C81          C86   1.415       .  A
C81        C1138   1.409       .  A
C81         C126   1.488       .  S
C82          C83   1.410       .  A
C82        C1137   1.422   1_455  A
C82          H87   1.081       .  S
C83         C199   1.486       .  S
C83        C1140   1.395   1_455  A
C84          C85   1.398       .  A
C84        C1139   1.395       .  A
C84          H88   1.084       .  S
C85         C219   1.480       .  S
C85          C86   1.403       .  A
C86          H89   1.082       .  S
C90          C95   1.428       .  A
C90        C1147   1.416       .  A
C90         C122   1.511       .  S
C91          C92   1.401       .  A
C91        C1146   1.411       .  A
C91          H96   1.084       .  S
C92         C189   1.479       .  S
C92        C1149   1.396       .  A
C93          C94   1.394       .  A
C93        C1148   1.395       .  A
C93          H97   1.085       .  S
C94         C209   1.492       .  S
C94          C95   1.412       .  A
C95          H98   1.080       .  S
O99        Cr381   2.010       .  S
O99         C107   1.267       .  A
O100      Cr1437   1.962   1_455  S
O100        C629   1.256       .  A
C101        O102   1.274   1_565  A
C101        O628   1.259       .  A
C101        C134   1.490       .  S
O102       Cr382   2.034       .  S
O103       Cr382   2.012       .  S
O103        C104   1.263   1_455  A
C104       O1161   1.256       .  A
C104        C121   1.490       .  S
O105       Cr911   1.989   1_545  S
O105       C1160   1.257       .  A
O106       Cr383   1.987       .  S
O106        C107   1.266       .  A
C107        C138   1.478       .  S
O108       Cr117   2.025       .  S
O108        C116   1.271       .  A
O109      Cr1173   1.995       .  S
O109        C638   1.264       .  A
C110        O111   1.261       .  A
C110        O637   1.263   1_545  A
C110        C130   1.478       .  S
O111       Cr118   2.001   1_554  S
O112       Cr118   1.961   1_554  S
O112        C113   1.256       .  A
C113       O1170   1.275   1_455  A
C113        C125   1.480       .  S
O114       Cr647   2.009   1_544  S
O114       C1169   1.267       .  A
O115       Cr119   1.980   1_554  S
O115        C116   1.263       .  A
C116        C142   1.486       .  S
Cr117       O363   1.983   1_554  S
Cr117      O1420   2.024   1_554  S
Cr117      O1165   1.979       .  S
Cr117      O1704   1.781       .  S
Cr118       O366   1.964       .  S
Cr118       O367   2.003       .  S
Cr118       O120   1.772       .  S
Cr119       O897   2.001       .  S
Cr119       O370   2.003       .  S
Cr119       O642   2.004   1_556  S
Cr119      O1704   1.775   1_556  S
O120      Cr1701   1.772   1_546  S
O120      Cr1703   1.771   1_455  S
C121       C1178   1.346   1_655  D
C121       H1179   1.085       .  S
C122       C1177   1.349       .  D
C122       H1180   1.087       .  S
H123       C1177   1.083       .  S
H124       C1178   1.087       .  S
C125       C1182   1.341   1_455  D
C125       H1183   1.085       .  S
C126       C1181   1.344       .  D
C126       H1184   1.087       .  S
H127       C1181   1.085       .  S
H128       C1182   1.087       .  S
C129        C658   1.344       .  D
C129        H131   1.087       .  S
C130        C657   1.341   1_545  D
C130        H132   1.086       .  S
C133        C662   1.341       .  D
C133        H135   1.087       .  S
C134        C661   1.346   1_565  D
C134        H136   1.083       .  S
C137        C138   1.344       .  D
C137        H139   1.087       .  S
C138        H140   1.084       .  S
C141        C142   1.352       .  D
C141        H143   1.087       .  S
C142        H144   1.083       .  S
C145        C146   1.409       .  A
C145        C150   1.400       .  A
C145        H151   1.083       .  S
C146        C147   1.403       .  A
C147        C148   1.391       .  A
C147        H152   1.083       .  S
C148        C149   1.404       .  A
C148        H153   1.083       .  S
C149        C150   1.401       .  A
C150        H154   1.083       .  S
C155        C156   1.400       .  A
C155        C160   1.398       .  A
C155        H161   1.084       .  S
C156        C157   1.408       .  A
C157        C158   1.410       .  A
C157        H162   1.083       .  S
C158        C159   1.407       .  A
C158        H163   1.083       .  S
C159        C160   1.409       .  A
C160        H164   1.084       .  S
C165        C166   1.401       .  A
C165        C170   1.388       .  A
C165        H171   1.083       .  S
C166        C167   1.405       .  A
C167        C168   1.404       .  A
C167        H172   1.083       .  S
C168        C169   1.405       .  A
C168        H173   1.083       .  S
C169        C170   1.402       .  A
C170        H174   1.084       .  S
C175        C176   1.410       .  A
C175        C180   1.403       .  A
C175        H181   1.083       .  S
C176        C177   1.405       .  A
C177        C178   1.397       .  A
C177        H182   1.083       .  S
C178        C179   1.404       .  A
C178        H183   1.083       .  S
C179        C180   1.402       .  A
C180        H184   1.083       .  S
C185        C186   1.405       .  A
C185        C190   1.404       .  A
C185        H191   1.083       .  S
C186        C187   1.400       .  A
C187        C188   1.392       .  A
C187        H192   1.083       .  S
C188        C189   1.405       .  A
C188        H193   1.084       .  S
C189        C190   1.405       .  A
C190        H194   1.083       .  S
C195        C196   1.410       .  A
C195        C200   1.405       .  A
C195        H201   1.083       .  S
C196        C197   1.403       .  A
C197        C198   1.397       .  A
C197        H202   1.083       .  S
C198        C199   1.407       .  A
C198        H203   1.083       .  S
C199        C200   1.404       .  A
C200        H204   1.083       .  S
C205        C206   1.405       .  A
C205        C210   1.399       .  A
C205        H211   1.083       .  S
C206        C207   1.412       .  A
C207        C208   1.408       .  A
C207        H212   1.082       .  S
C208        C209   1.404       .  A
C208        H213   1.083       .  S
C209        C210   1.408       .  A
C210        H214   1.083       .  S
C215        C216   1.403       .  A
C215        C220   1.401       .  A
C215        H221   1.084       .  S
C216        C217   1.399       .  A
C217        C218   1.392       .  A
C217        H222   1.083       .  S
C218        C219   1.406       .  A
C218        H223   1.084       .  S
C219        C220   1.406       .  A
C220        H224   1.082       .  S
C225        C226   1.400       .  A
C225        C230   1.394       .  A
C225        H231   1.084       .  S
C226        C227   1.406       .  A
C227        C228   1.407       .  A
C227        H232   1.083       .  S
C228        C229   1.407       .  A
C228        H233   1.083       .  S
C229        C230   1.408       .  A
C230        H234   1.083       .  S
C235        C236   1.405       .  A
C235        C240   1.397       .  A
C235        H241   1.083       .  S
C236        C237   1.409       .  A
C237        C238   1.402       .  A
C237        H242   1.083       .  S
C238        C239   1.402       .  A
C238        H243   1.083       .  S
C239        C240   1.405       .  A
C240        H244   1.083       .  S
C245        C246   1.405       .  A
C245        C250   1.395       .  A
C245        H251   1.083       .  S
C246        C247   1.402       .  A
C247        C248   1.398       .  A
C247        H252   1.084       .  S
C248        C249   1.407       .  A
C248        H253   1.082       .  S
C249        C250   1.404       .  A
C250        H254   1.084       .  S
C255        C256   1.407       .  A
C255        C260   1.407       .  A
C255        H261   1.084       .  S
C256        C257   1.400       .  A
C257        C258   1.395       .  A
C257        H262   1.083       .  S
C258        C259   1.408       .  A
C258        H263   1.084       .  S
C259        C260   1.405       .  A
C260        H264   1.082       .  S
O265       Cr283   2.011       .  S
O265        C273   1.268       .  A
O266       Cr283   1.986       .  S
O266        C267   1.260       .  A
C267        O268   1.266       .  A
C267        C480   1.475       .  S
O268       Cr284   2.006       .  S
O269       Cr284   1.967       .  S
O269        C270   1.258       .  A
C270        O271   1.269       .  A
C270        C490   1.464       .  S
O271       Cr285   2.011       .  S
O272       Cr285   1.979       .  S
O272        C273   1.259       .  A
C273        C520   1.474       .  S
O274       Cr283   1.980       .  S
O274        C282   1.261       .  A
O275       Cr283   2.015       .  S
O275        C276   1.267       .  A
C276        O277   1.259       .  A
C276        C470   1.479       .  S
O277       Cr284   1.967       .  S
O278       Cr284   2.006       .  S
O278        C279   1.263       .  A
C279        O280   1.261       .  A
C279        C500   1.486       .  S
O280       Cr285   1.987       .  S
O281       Cr285   2.015       .  S
O281        C282   1.266       .  A
C282        C513   1.485       .  S
Cr283       O286   1.775       .  S
Cr284       O286   1.775       .  S
Cr285       O286   1.777       .  S
O287       Cr305   1.998       .  S
O287        C295   1.266       .  A
O288       Cr305   1.975       .  S
O288        C289   1.258       .  A
C289        O290   1.266       .  A
C289        C420   1.467       .  S
O290       Cr306   1.997       .  S
O291       Cr306   1.982       .  S
O291        C292   1.259       .  A
C292        O293   1.265       .  A
C292        C430   1.469       .  S
O293       Cr307   1.996       .  S
O294       Cr307   1.980       .  S
O294        C295   1.261       .  A
C295        C450   1.470       .  S
O296       Cr305   1.978       .  S
O296        C304   1.260       .  A
O297       Cr305   2.000       .  S
O297        C298   1.264       .  A
C298        O299   1.260       .  A
C298        C410   1.476       .  S
O299       Cr306   1.973       .  S
O300       Cr306   2.008       .  S
O300        C301   1.266       .  A
C301        O302   1.262       .  A
C301        C440   1.482       .  S
O302       Cr307   1.980       .  S
O303       Cr307   1.999       .  S
O303        C304   1.264       .  A
C304        C460   1.478       .  S
Cr305       O308   1.772       .  S
Cr306       O308   1.768       .  S
Cr307       O308   1.768       .  S
C309        C310   1.416       .  A
C309        C314   1.408       .  A
C309        C405   1.488       .  S
C310        C311   1.403       .  A
C310        H315   1.082       .  S
C311        C443   1.481       .  S
C311        C312   1.396       .  A
C312        C313   1.399       .  A
C312        H316   1.084       .  S
C313        C493   1.480       .  S
C313        C314   1.404       .  A
C314        H317   1.084       .  S
C318        C319   1.410       .  A
C318        C323   1.418       .  A
C318        C401   1.488       .  S
C319        C320   1.400       .  A
C319        H324   1.084       .  S
C320        C433   1.478       .  S
C320        C321   1.395       .  A
C321        C322   1.395       .  A
C321        H325   1.085       .  S
C322        C503   1.480       .  S
C322        C323   1.407       .  A
C323        H326   1.082       .  S
C327        C328   1.410       .  A
C327        C860   1.420       .  A
C327        C397   1.492       .  S
C328        C329   1.402       .  A
C328        H333   1.084       .  S
C329        C423   1.481       .  S
C329        C330   1.398       .  A
C330        C859   1.396       .  A
C330        H334   1.085       .  S
C331        C510   1.483       .  S
C331        C858   1.397   1_545  A
C331        C332   1.406       .  A
C332        C855   1.417   1_545  A
C332        H335   1.082       .  S
C336        C865   1.418       .  A
C336        C341   1.409       .  A
C336        C393   1.488       .  S
C337        C864   1.421       .  A
C337        C338   1.412       .  A
C337        H342   1.081       .  S
C338        C523   1.485       .  S
C338        C867   1.398       .  A
C339        C866   1.396       .  A
C339        C340   1.393       .  A
C339        H343   1.085       .  S
C340        C413   1.474       .  S
C340        C341   1.398       .  A
C341        H344   1.084       .  S
C345       C1402   1.410       .  A
C345        C350   1.423       .  A
C345        C390   1.496       .  S
C346       C1401   1.409   1_455  A
C346        C347   1.402       .  A
C346        H351   1.084       .  S
C347        C463   1.475       .  S
C347       C1404   1.396   1_455  A
C348       C1403   1.394       .  A
C348        C349   1.397       .  A
C348        H352   1.085       .  S
C349        C483   1.489       .  S
C349        C350   1.410       .  A
C350        H353   1.081       .  S
C354       C1411   1.413       .  A
C354        C359   1.412       .  A
C354        C386   1.485       .  S
C355       C1410   1.412       .  A
C355        C356   1.404       .  A
C355        H360   1.084       .  S
C356        C453   1.483       .  S
C356       C1413   1.398       .  A
C357       C1412   1.398       .  A
C357        C358   1.395       .  A
C357        H361   1.085       .  S
C358        C473   1.473       .  S
C358        C359   1.399       .  A
C359        H362   1.082       .  S
O363        C371   1.257       .  A
O364      Cr1173   2.028   1_556  S
O364        C893   1.273       .  A
C365        O892   1.273   1_545  A
C365        O366   1.258       .  A
C365        C398   1.477       .  S
O367        C368   1.263   1_455  A
C368       O1425   1.257       .  A
C368        C385   1.475       .  S
O369       Cr647   1.987   1_545  S
O369       C1424   1.259       .  A
O370        C371   1.263       .  A
C371        C402   1.482       .  S
O372       Cr381   1.992       .  S
O372        C380   1.262       .  A
O373      Cr1437   2.004   1_455  S
O373        C902   1.265       .  A
C374        O901   1.264   1_545  A
C374        O375   1.261       .  A
C374        C394   1.491       .  S
O375       Cr382   1.992       .  S
O376       Cr382   2.039       .  S
O376        C377   1.277   1_455  A
C377       O1434   1.261       .  A
C377        C389   1.480       .  S
O378       Cr911   1.968   1_545  S
O378       C1433   1.262       .  A
O379       Cr383   1.993       .  S
O379        C380   1.260       .  A
C380        C406   1.473       .  S
Cr381      O1156   1.966       .  S
Cr381      O1429   2.012       .  S
Cr381      O1968   1.779       .  S
Cr382       O384   1.781   1_445  S
Cr383       O633   1.995       .  S
Cr383       O906   1.968       .  S
Cr383      O1968   1.777       .  S
O384      Cr1965   1.780       .  S
O384      Cr1967   1.775       .  S
C385       C1442   1.347   1_655  D
C385       H1443   1.085       .  S
C386       C1441   1.349       .  D
C386       H1444   1.087       .  S
H387       C1441   1.085       .  S
H388       C1442   1.087       .  S
C389       C1446   1.344   1_655  D
C389       H1447   1.084       .  S
C390       C1445   1.345       .  D
C390       H1448   1.087       .  S
H391       C1445   1.084       .  S
H392       C1446   1.087       .  S
C393        C922   1.345       .  D
C393        H395   1.087       .  S
C394        C921   1.351   1_545  D
C394        H396   1.084       .  S
C397        C926   1.345       .  D
C397        H399   1.087       .  S
C398        C925   1.342   1_545  D
C398        H400   1.086       .  S
C401        C402   1.347       .  D
C401        H403   1.087       .  S
C402        H404   1.085       .  S
C405        C406   1.343       .  D
C405        H407   1.087       .  S
C406        H408   1.085       .  S
C409        C410   1.408       .  A
C409        C414   1.398       .  A
C409        H415   1.083       .  S
C410        C411   1.404       .  A
C411        C412   1.392       .  A
C411        H416   1.083       .  S
C412        C413   1.404       .  A
C412        H417   1.084       .  S
C413        C414   1.402       .  A
C414        H418   1.083       .  S
C419        C420   1.400       .  A
C419        C424   1.391       .  A
C419        H425   1.084       .  S
C420        C421   1.404       .  A
C421        C422   1.402       .  A
C421        H426   1.083       .  S
C422        C423   1.406       .  A
C422        H427   1.083       .  S
C423        C424   1.406       .  A
C424        H428   1.083       .  S
C429        C430   1.401       .  A
C429        C434   1.386       .  A
C429        H435   1.084       .  S
C430        C431   1.406       .  A
C431        C432   1.406       .  A
C431        H436   1.083       .  S
C432        C433   1.406       .  A
C432        H437   1.083       .  S
C433        C434   1.403       .  A
C434        H438   1.084       .  S
C439        C440   1.409       .  A
C439        C444   1.400       .  A
C439        H445   1.083       .  S
C440        C441   1.404       .  A
C441        C442   1.396       .  A
C441        H446   1.083       .  S
C442        C443   1.406       .  A
C442        H447   1.083       .  S
C443        C444   1.402       .  A
C444        H448   1.083       .  S
C449        C450   1.404       .  A
C449        C454   1.403       .  A
C449        H455   1.083       .  S
C450        C451   1.400       .  A
C451        C452   1.392       .  A
C451        H456   1.084       .  S
C452        C453   1.406       .  A
C452        H457   1.084       .  S
C453        C454   1.406       .  A
C454        H458   1.083       .  S
C459        C460   1.407       .  A
C459        C464   1.397       .  A
C459        H465   1.083       .  S
C460        C461   1.405       .  A
C461        C462   1.396       .  A
C461        H466   1.083       .  S
C462        C463   1.404       .  A
C462        H467   1.083       .  S
C463        C464   1.401       .  A
C464        H468   1.083       .  S
C469        C470   1.405       .  A
C469        C474   1.392       .  A
C469        H475   1.083       .  S
C470        C471   1.408       .  A
C471        C472   1.402       .  A
C471        H476   1.083       .  S
C472        C473   1.402       .  A
C472        H477   1.083       .  S
C473        C474   1.402       .  A
C474        H478   1.084       .  S
C479        C480   1.406       .  A
C479        C484   1.408       .  A
C479        H485   1.084       .  S
C480        C481   1.400       .  A
C481        C482   1.394       .  A
C481        H486   1.083       .  S
C482        C483   1.407       .  A
C482        H487   1.084       .  S
C483        C484   1.407       .  A
C484        H488   1.082       .  S
C489        C490   1.398       .  A
C489        C494   1.393       .  A
C489        H495   1.083       .  S
C490        C491   1.404       .  A
C491        C492   1.401       .  A
C491        H496   1.083       .  S
C492        C493   1.405       .  A
C492        H497   1.083       .  S
C493        C494   1.406       .  A
C494        H498   1.084       .  S
C499        C500   1.404       .  A
C499        C504   1.397       .  A
C499        H505   1.083       .  S
C500        C501   1.410       .  A
C501        C502   1.402       .  A
C501        H506   1.083       .  S
C502        C503   1.402       .  A
C502        H507   1.083       .  S
C503        C504   1.406       .  A
C504        H508   1.083       .  S
C509        C510   1.405       .  A
C509        C514   1.396       .  A
C509        H515   1.083       .  S
C510        C511   1.404       .  A
C511        C512   1.406       .  A
C511        H516   1.083       .  S
C512        C513   1.409       .  A
C512        H517   1.082       .  S
C513        C514   1.404       .  A
C514        H518   1.084       .  S
C519        C520   1.406       .  A
C519        C524   1.406       .  A
C519        H525   1.084       .  S
C520        C521   1.400       .  A
C521        C522   1.396       .  A
C521        H526   1.083       .  S
C522        C523   1.408       .  A
C522        H527   1.084       .  S
C523        C524   1.406       .  A
C524        H528   1.082       .  S
O529       Cr547   2.012       .  S
O529        C537   1.269       .  A
O530       Cr547   1.972       .  S
O530        C531   1.258       .  A
C531        O532   1.267       .  A
C531        C744   1.463       .  S
O532       Cr548   2.002       .  S
O533       Cr548   1.979       .  S
O533        C534   1.260       .  A
C534        O535   1.266       .  A
C534        C754   1.471       .  S
O535       Cr549   2.000       .  S
O536       Cr549   1.982       .  S
O536        C537   1.260       .  A
C537        C784   1.477       .  S
O538       Cr547   1.973       .  S
O538        C546   1.259       .  A
O539       Cr547   2.017       .  S
O539        C540   1.266       .  A
C540        O541   1.261       .  A
C540        C734   1.488       .  S
O541       Cr548   1.981       .  S
O542       Cr548   2.008       .  S
O542        C543   1.265       .  A
C543        O544   1.260       .  A
C543        C764   1.485       .  S
O544       Cr549   1.981       .  S
O545       Cr549   1.997       .  S
O545        C546   1.263       .  A
C546        C777   1.473       .  S
Cr547       O550   1.776       .  S
Cr548       O550   1.773       .  S
Cr549       O550   1.774       .  S
O551       Cr569   2.004       .  S
O551        C559   1.269       .  A
O552       Cr569   1.984       .  S
O552        C553   1.260       .  A
C553        O554   1.266       .  A
C553        C684   1.478       .  S
O554       Cr570   2.010       .  S
O555       Cr570   1.979       .  S
O555        C556   1.259       .  A
C556        O557   1.263       .  A
C556        C694   1.460       .  S
O557       Cr571   1.987       .  S
O558       Cr571   1.971       .  S
O558        C559   1.260       .  A
C559        C714   1.465       .  S
O560       Cr569   1.983       .  S
O560        C568   1.259       .  A
O561       Cr569   2.001       .  S
O561        C562   1.265       .  A
C562        O563   1.259       .  A
C562        C674   1.472       .  S
O563       Cr570   1.964       .  S
O564       Cr570   2.016       .  S
O564        C565   1.267       .  A
C565        O566   1.262       .  A
C565        C704   1.483       .  S
O566       Cr571   1.981       .  S
O567       Cr571   1.993       .  S
O567        C568   1.260       .  A
C568        C724   1.478       .  S
Cr569       O572   1.772       .  S
Cr570       O572   1.768       .  S
Cr571       O572   1.772       .  S
C573        C574   1.419       .  A
C573        C578   1.415       .  A
C573        C669   1.499       .  S
C574        C575   1.403       .  A
C574        H579   1.080       .  S
C575        C707   1.478       .  S
C575        C576   1.393       .  A
C576        C577   1.398       .  A
C576        H580   1.085       .  S
C577        C757   1.487       .  S
C577        C578   1.408       .  A
C578        H581   1.084       .  S
C582        C583   1.403       .  A
C582        C587   1.418       .  A
C582        C665   1.481       .  S
C583        C584   1.393       .  A
C583        H588   1.085       .  S
C584        C697   1.466       .  S
C584        C585   1.395       .  A
C585        C586   1.396       .  A
C585        H589   1.085       .  S
C586        C767   1.479       .  S
C586        C587   1.408       .  A
C587        H590   1.082       .  S
C591        C592   1.426   1_545  A
C591        C661   1.502       .  S
C592        C593   1.416       .  A
C592        H597   1.081       .  S
C593        C687   1.493       .  S
C593        C594   1.397   1_565  A
C594        H598   1.085   1_545  S
C595        C774   1.473       .  S
C595        C596   1.396       .  A
C596        H599   1.084       .  S
C600        C605   1.406       .  A
C600        C657   1.487       .  S
C601        C602   1.412       .  A
C601        H606   1.082       .  S
C602        C787   1.489       .  S
C603        C604   1.393   1_545  A
C603        H607   1.085       .  S
C604        C677   1.469       .  S
C604        C605   1.395       .  A
C605        H608   1.085       .  S
C609       C1666   1.410       .  A
C609        C614   1.414       .  A
C609        C654   1.491       .  S
C610       C1665   1.410       .  A
C610        C611   1.404       .  A
C610        H615   1.084       .  S
C611        C727   1.480       .  S
C611       C1668   1.394   1_455  A
C612       C1667   1.398       .  A
C612        C613   1.399       .  A
C612        H616   1.083       .  S
C613        C747   1.481       .  S
C613        C614   1.403       .  A
C614        H617   1.081       .  S
C618       C1675   1.413       .  A
C618        C623   1.422       .  A
C618        C650   1.501       .  S
C619       C1674   1.412       .  A
C619        C620   1.402       .  A
C619        H624   1.084       .  S
C620        C717   1.477       .  S
C620       C1677   1.395       .  A
C621       C1676   1.397       .  A
C621        C622   1.396       .  A
C621        H625   1.085       .  S
C622        C737   1.487       .  S
C622        C623   1.408       .  A
C623        H626   1.081       .  S
O627       Cr909   2.004       .  S
O627        C635   1.263       .  A
O628      Cr1965   1.972   1_455  S
C629        O630   1.276       .  A
C629        C662   1.487       .  S
O630       Cr910   2.042       .  S
O631       Cr910   1.990       .  S
O631        C632   1.259   1_455  A
C632       O1689   1.260       .  A
C632        C649   1.482       .  S
O633       C1688   1.258       .  A
O634       Cr911   1.983       .  S
O634        C635   1.265       .  A
C635        C666   1.474       .  S
O636       Cr645   2.022       .  S
O636        C644   1.269       .  A
O637      Cr1701   1.991       .  S
C638        O639   1.262       .  A
C638        C658   1.485       .  S
O639       Cr646   2.002   1_554  S
O640       Cr646   1.982   1_554  S
O640        C641   1.261   1_455  A
C641       O1698   1.264       .  A
C641        C653   1.475       .  S
O642       C1697   1.265       .  A
O643       Cr647   1.974   1_554  S
O643        C644   1.260       .  A
C644        C670   1.484       .  S
Cr645       O891   1.994   1_554  S
Cr645      O1948   2.018   1_554  S
Cr645      O1693   2.007       .  S
Cr645      O1176   1.783   1_564  S
Cr646       O894   1.971       .  S
Cr646       O895   2.007       .  S
Cr646       O648   1.776   1_456  S
Cr647       O898   2.007       .  S
Cr647      O1176   1.778   1_565  S
O648      Cr1173   1.777   1_655  S
O648      Cr1175   1.773   1_554  S
C649       C1706   1.347   1_655  D
C649       H1707   1.084       .  S
C650       C1705   1.348       .  D
C650       H1708   1.087       .  S
H651       C1705   1.083       .  S
H652       C1706   1.087       .  S
C653       C1710   1.345   1_655  D
C653       H1711   1.085       .  S
C654       C1709   1.345       .  D
C654       H1712   1.087       .  S
H655       C1709   1.085       .  S
H656       C1710   1.087       .  S
C657        H659   1.088       .  S
C658        H660   1.085       .  S
C661        H663   1.087       .  S
C662        H664   1.083       .  S
C665        C666   1.338       .  D
C665        H667   1.088       .  S
C666        H668   1.086       .  S
C669        C670   1.349       .  D
C669        H671   1.087       .  S
C670        H672   1.083       .  S
C673        C674   1.407       .  A
C673        C678   1.398       .  A
C673        H679   1.083       .  S
C674        C675   1.403       .  A
C675        C676   1.389       .  A
C675        H680   1.083       .  S
C676        C677   1.402       .  A
C676        H681   1.084       .  S
C677        C678   1.401       .  A
C678        H682   1.083       .  S
C683        C684   1.400       .  A
C683        C688   1.397       .  A
C683        H689   1.084       .  S
C684        C685   1.407       .  A
C685        C686   1.408       .  A
C685        H690   1.083       .  S
C686        C687   1.406       .  A
C686        H691   1.083       .  S
C687        C688   1.410       .  A
C688        H692   1.084       .  S
C693        C694   1.401       .  A
C693        C698   1.384       .  A
C693        H699   1.084       .  S
C694        C695   1.403       .  A
C695        C696   1.401       .  A
C695        H700   1.083       .  S
C696        C697   1.405       .  A
C696        H701   1.083       .  S
C697        C698   1.400       .  A
C698        H702   1.083       .  S
C703        C704   1.409       .  A
C703        C708   1.401       .  A
C703        H709   1.083       .  S
C704        C705   1.405       .  A
C705        C706   1.397       .  A
C705        H710   1.083       .  S
C706        C707   1.405       .  A
C706        H711   1.083       .  S
C707        C708   1.401       .  A
C708        H712   1.083       .  S
C713        C714   1.404       .  A
C713        C718   1.401       .  A
C713        H719   1.084       .  S
C714        C715   1.399       .  A
C715        C716   1.392       .  A
C715        H720   1.083       .  S
C716        C717   1.406       .  A
C716        H721   1.084       .  S
C717        C718   1.404       .  A
C718        H722   1.083       .  S
C723        C724   1.408       .  A
C723        C728   1.398       .  A
C723        H729   1.083       .  S
C724        C725   1.403       .  A
C725        C726   1.394       .  A
C725        H730   1.083       .  S
C726        C727   1.407       .  A
C726        H731   1.083       .  S
C727        C728   1.402       .  A
C728        H732   1.083       .  S
C733        C734   1.405       .  A
C733        C738   1.396       .  A
C733        H739   1.083       .  S
C734        C735   1.410       .  A
C735        C736   1.406       .  A
C735        H740   1.083       .  S
C736        C737   1.404       .  A
C736        H741   1.083       .  S
C737        C738   1.406       .  A
C738        H742   1.083       .  S
C743        C744   1.403       .  A
C743        C748   1.401       .  A
C743        H749   1.084       .  S
C744        C745   1.399       .  A
C745        C746   1.392       .  A
C745        H750   1.083       .  S
C746        C747   1.406       .  A
C746        H751   1.084       .  S
C747        C748   1.406       .  A
C748        H752   1.082       .  S
C753        C754   1.399       .  A
C753        C758   1.392       .  A
C753        H759   1.084       .  S
C754        C755   1.405       .  A
C755        C756   1.405       .  A
C755        H760   1.083       .  S
C756        C757   1.407       .  A
C756        H761   1.083       .  S
C757        C758   1.407       .  A
C758        H762   1.083       .  S
C763        C764   1.405       .  A
C763        C768   1.397       .  A
C763        H769   1.083       .  S
C764        C765   1.409       .  A
C765        C766   1.402       .  A
C765        H770   1.083       .  S
C766        C767   1.402       .  A
C766        H771   1.083       .  S
C767        C768   1.405       .  A
C768        H772   1.083       .  S
C773        C774   1.404       .  A
C773        C778   1.393       .  A
C773        H779   1.083       .  S
C774        C775   1.401       .  A
C775        C776   1.395       .  A
C775        H780   1.084       .  S
C776        C777   1.407       .  A
C776        H781   1.082       .  S
C777        C778   1.404       .  A
C778        H782   1.084       .  S
C783        C784   1.408       .  A
C783        C788   1.409       .  A
C783        H789   1.084       .  S
C784        C785   1.399       .  A
C785        C786   1.394       .  A
C785        H790   1.083       .  S
C786        C787   1.409       .  A
C786        H791   1.084       .  S
C787        C788   1.406       .  A
C788        H792   1.082       .  S
O793       Cr811   2.001       .  S
O793        C801   1.266       .  A
O794       Cr811   1.983       .  S
O794        C795   1.259       .  A
C795        O796   1.265       .  A
C795       C1008   1.469       .  S
O796       Cr812   2.005       .  S
O797       Cr812   1.960       .  S
O797        C798   1.257       .  A
C798        O799   1.270       .  A
C798       C1018   1.460       .  S
O799       Cr813   2.010       .  S
O800       Cr813   1.977       .  S
O800        C801   1.257       .  A
C801       C1048   1.467       .  S
O802       Cr811   1.975       .  S
O802        C810   1.261       .  A
O803       Cr811   2.007       .  S
O803        C804   1.266       .  A
C804        O805   1.259       .  A
C804        C998   1.472       .  S
O805       Cr812   1.964       .  S
O806       Cr812   2.006       .  S
O806        C807   1.263       .  A
C807        O808   1.261       .  A
C807       C1028   1.487       .  S
O808       Cr813   1.990       .  S
O809       Cr813   2.019       .  S
O809        C810   1.267       .  A
C810       C1041   1.485       .  S
Cr811       O814   1.772       .  S
Cr812       O814   1.771       .  S
Cr813       O814   1.773       .  S
O815       Cr833   2.000       .  S
O815        C823   1.267       .  A
O816       Cr833   1.979       .  S
O816        C817   1.259       .  A
C817        O818   1.264       .  A
C817        C948   1.466       .  S
O818       Cr834   1.990       .  S
O819       Cr834   1.981       .  S
O819        C820   1.259       .  A
C820        O821   1.268       .  A
C820        C958   1.475       .  S
O821       Cr835   2.015       .  S
O822       Cr835   1.984       .  S
O822        C823   1.263       .  A
C823        C978   1.473       .  S
O824       Cr833   1.979       .  S
O824        C832   1.260       .  A
O825       Cr833   2.009       .  S
O825        C826   1.266       .  A
C826        O827   1.260       .  A
C826        C938   1.483       .  S
O827       Cr834   1.977       .  S
O828       Cr834   1.998       .  S
O828        C829   1.264       .  A
C829        O830   1.260       .  A
C829        C968   1.473       .  S
O830       Cr835   1.974       .  S
O831       Cr835   2.005       .  S
O831        C832   1.265       .  A
C832        C988   1.481       .  S
Cr833       O836   1.771       .  S
Cr834       O836   1.768       .  S
Cr835       O836   1.772       .  S
C837        C838   1.414       .  A
C837        C842   1.409       .  A
C837        C933   1.487       .  S
C838        C839   1.398       .  A
C838        H843   1.081       .  S
C839        C971   1.475       .  S
C839        C840   1.393       .  A
C840        C841   1.398       .  A
C840        H844   1.084       .  S
C841       C1021   1.479       .  S
C841        C842   1.405       .  A
C842        H845   1.084       .  S
C846        C847   1.417       .  A
C846        C851   1.420       .  A
C846        C929   1.499       .  S
C847        C848   1.405       .  A
C847        H852   1.084       .  S
C848        C961   1.485       .  S
C848        C849   1.394       .  A
C849        C850   1.394       .  A
C849        H853   1.085       .  S
C850       C1031   1.480       .  S
C850        C851   1.410       .  A
C851        H854   1.081       .  S
C855        C856   1.406       .  A
C855        C925   1.485       .  S
C856        C857   1.400       .  A
C856        H861   1.084       .  S
C857        C951   1.480       .  S
C857        C858   1.400       .  A
C858        H862   1.084       .  S
C859       C1038   1.485       .  S
C859        C860   1.408       .  A
C860        H863   1.082       .  S
C864        C869   1.413   1_545  A
C864        C921   1.498   1_545  S
C865        C866   1.406       .  A
C865        H870   1.081       .  S
C866       C1051   1.476       .  S
C867        C868   1.393   1_545  A
C867        H871   1.085       .  S
C868        C941   1.483       .  S
C868        C869   1.402       .  A
C869        H872   1.084       .  S
C873       C1930   1.409       .  A
C873        C878   1.419       .  A
C873        C918   1.492       .  S
C874       C1929   1.409   1_455  A
C874        C875   1.403       .  A
C874        H879   1.084       .  S
C875        C991   1.480       .  S
C875       C1932   1.397   1_455  A
C876       C1931   1.395       .  A
C876        C877   1.396       .  A
C876        H880   1.085       .  S
C877       C1011   1.480       .  S
C877        C878   1.405       .  A
C878        H881   1.081       .  S
C882       C1939   1.421       .  A
C882        C887   1.403       .  A
C882        C914   1.488       .  S
C883       C1938   1.413       .  A
C883        C884   1.406       .  A
C883        H888   1.084       .  S
C884        C981   1.484       .  S
C884       C1941   1.398   1_455  A
C885       C1940   1.398       .  A
C885        C886   1.396       .  A
C885        H889   1.085       .  S
C886       C1001   1.471       .  S
C886        C887   1.396       .  A
C887        H890   1.085       .  S
O891        C899   1.262       .  A
O892      Cr1701   2.029   1_556  S
C893        O894   1.260       .  A
C893        C926   1.483       .  S
O895        C896   1.266   1_455  A
C896       O1953   1.260       .  A
C896        C913   1.477       .  S
O897       C1952   1.267       .  A
O898        C899   1.265       .  A
C899        C930   1.492       .  S
O900       Cr909   1.985       .  S
O900        C908   1.261       .  A
O901      Cr1965   2.002   1_455  S
C902        O903   1.256       .  A
C902        C922   1.479       .  S
O903       Cr910   1.975       .  S
O904       Cr910   2.045       .  S
O904        C905   1.277   1_455  A
C905       O1962   1.260       .  A
C905        C917   1.484       .  S
O906       C1961   1.261       .  A
O907       Cr911   1.990       .  S
O907        C908   1.260       .  A
C908        C934   1.467       .  S
Cr909      O1684   1.957       .  S
Cr909      O1957   2.003       .  S
Cr909      O1440   1.786       .  S
Cr910       O912   1.780   1_455  S
Cr911      O1440   1.775       .  S
O912      Cr1437   1.779       .  S
O912      Cr1439   1.770       .  S
C913       C1970   1.348   1_655  D
C913       H1971   1.085       .  S
C914       C1969   1.340       .  D
C914       H1972   1.087       .  S
H915       C1969   1.087       .  S
H916       C1970   1.087       .  S
C917       C1974   1.344   1_655  D
C917       H1975   1.084       .  S
C918       C1973   1.345       .  D
C918       H1976   1.087       .  S
H919       C1973   1.084       .  S
H920       C1974   1.087       .  S
C921        H923   1.087       .  S
C922        H924   1.084       .  S
C925        H927   1.087       .  S
C926        H928   1.085       .  S
C929        C930   1.352       .  D
C929        H931   1.087       .  S
C930        H932   1.085       .  S
C933        C934   1.343       .  D
C933        H935   1.087       .  S
C934        H936   1.084       .  S
C937        C938   1.408       .  A
C937        C942   1.401       .  A
C937        H943   1.083       .  S
C938        C939   1.405       .  A
C939        C940   1.396       .  A
C939        H944   1.083       .  S
C940        C941   1.406       .  A
C940        H945   1.083       .  S
C941        C942   1.403       .  A
C942        H946   1.083       .  S
C947        C948   1.401       .  A
C947        C952   1.391       .  A
C947        H953   1.084       .  S
C948        C949   1.403       .  A
C949        C950   1.401       .  A
C949        H954   1.083       .  S
C950        C951   1.407       .  A
C950        H955   1.083       .  S
C951        C952   1.404       .  A
C952        H956   1.084       .  S
C957        C958   1.401       .  A
C957        C962   1.392       .  A
C957        H963   1.083       .  S
C958        C959   1.406       .  A
C959        C960   1.406       .  A
C959        H964   1.084       .  S
C960        C961   1.406       .  A
C960        H965   1.082       .  S
C961        C962   1.406       .  A
C962        H966   1.084       .  S
C967        C968   1.407       .  A
C967        C972   1.396       .  A
C967        H973   1.083       .  S
C968        C969   1.403       .  A
C969        C970   1.393       .  A
C969        H974   1.083       .  S
C970        C971   1.405       .  A
C970        H975   1.083       .  S
C971        C972   1.401       .  A
C972        H976   1.083       .  S
C977        C978   1.407       .  A
C977        C982   1.407       .  A
C977        H983   1.083       .  S
C978        C979   1.400       .  A
C979        C980   1.391       .  A
C979        H984   1.084       .  S
C980        C981   1.405       .  A
C980        H985   1.084       .  S
C981        C982   1.406       .  A
C982        H986   1.083       .  S
C987        C988   1.408       .  A
C987        C992   1.399       .  A
C987        H993   1.083       .  S
C988        C989   1.405       .  A
C989        C990   1.396       .  A
C989        H994   1.083       .  S
C990        C991   1.405       .  A
C990        H995   1.083       .  S
C991        C992   1.403       .  A
C992        H996   1.083       .  S
C997        C998   1.404       .  A
C997       C1002   1.390       .  A
C997       H1003   1.083       .  S
C998        C999   1.407       .  A
C999       C1000   1.398       .  A
C999       H1004   1.083       .  S
C1000      C1001   1.402       .  A
C1000      H1005   1.083       .  S
C1001      C1002   1.402       .  A
C1002      H1006   1.083       .  S
C1007      C1008   1.404       .  A
C1007      C1012   1.404       .  A
C1007      H1013   1.084       .  S
C1008      C1009   1.400       .  A
C1009      C1010   1.395       .  A
C1009      H1014   1.083       .  S
C1010      C1011   1.405       .  A
C1010      H1015   1.084       .  S
C1011      C1012   1.405       .  A
C1012      H1016   1.083       .  S
C1017      C1018   1.397       .  A
C1017      C1022   1.391       .  A
C1017      H1023   1.083       .  S
C1018      C1019   1.403       .  A
C1019      C1020   1.400       .  A
C1019      H1024   1.084       .  S
C1020      C1021   1.405       .  A
C1020      H1025   1.083       .  S
C1021      C1022   1.408       .  A
C1022      H1026   1.084       .  S
C1027      C1028   1.405       .  A
C1027      C1032   1.399       .  A
C1027      H1033   1.083       .  S
C1028      C1029   1.410       .  A
C1029      C1030   1.402       .  A
C1029      H1034   1.083       .  S
C1030      C1031   1.402       .  A
C1030      H1035   1.083       .  S
C1031      C1032   1.407       .  A
C1032      H1036   1.083       .  S
C1037      C1038   1.406       .  A
C1037      C1042   1.396       .  A
C1037      H1043   1.083       .  S
C1038      C1039   1.404       .  A
C1039      C1040   1.406       .  A
C1039      H1044   1.083       .  S
C1040      C1041   1.408       .  A
C1040      H1045   1.083       .  S
C1041      C1042   1.405       .  A
C1042      H1046   1.084       .  S
C1047      C1048   1.404       .  A
C1047      C1052   1.403       .  A
C1047      H1053   1.083       .  S
C1048      C1049   1.400       .  A
C1049      C1050   1.394       .  A
C1049      H1054   1.083       .  S
C1050      C1051   1.405       .  A
C1050      H1055   1.084       .  S
C1051      C1052   1.404       .  A
C1052      H1056   1.083       .  S
O1057     Cr1075   2.011       .  S
O1057      C1065   1.267       .  A
O1058     Cr1075   1.967       .  S
O1058      C1059   1.257       .  A
C1059      O1060   1.267       .  A
C1059      C1272   1.460       .  S
O1060     Cr1076   1.998       .  S
O1061     Cr1076   1.983       .  S
O1061      C1062   1.260       .  A
C1062      O1063   1.265       .  A
C1062      C1282   1.473       .  S
O1063     Cr1077   1.996       .  S
O1064     Cr1077   1.985       .  S
O1064      C1065   1.259       .  A
C1065      C1312   1.478       .  S
O1066     Cr1075   1.968       .  S
O1066      C1074   1.259       .  A
O1067     Cr1075   2.018       .  S
O1067      C1068   1.266       .  A
C1068      O1069   1.264       .  A
C1068      C1262   1.496       .  S
O1069     Cr1076   1.994       .  S
O1070     Cr1076   2.006       .  S
O1070      C1071   1.265       .  A
C1071      O1072   1.260       .  A
C1071      C1292   1.483       .  S
O1072     Cr1077   1.979       .  S
O1073     Cr1077   1.996       .  S
O1073      C1074   1.264       .  A
C1074      C1305   1.470       .  S
Cr1075     O1078   1.773       .  S
Cr1076     O1078   1.773       .  S
Cr1077     O1078   1.775       .  S
O1079     Cr1097   2.008       .  S
O1079      C1087   1.270       .  A
O1080     Cr1097   1.985       .  S
O1080      C1081   1.259       .  A
C1081      O1082   1.266       .  A
C1081      C1212   1.476       .  S
O1082     Cr1098   2.005       .  S
O1083     Cr1098   1.989       .  S
O1083      C1084   1.260       .  A
C1084      O1085   1.262       .  A
C1084      C1222   1.471       .  S
O1085     Cr1099   1.985       .  S
O1086     Cr1099   1.979       .  S
O1086      C1087   1.262       .  A
C1087      C1242   1.473       .  S
O1088     Cr1097   1.989       .  S
O1088      C1096   1.260       .  A
O1089     Cr1097   2.007       .  S
O1089      C1090   1.265       .  A
C1090      O1091   1.261       .  A
C1090      C1202   1.479       .  S
O1091     Cr1098   1.975       .  S
O1092     Cr1098   2.017       .  S
O1092      C1093   1.267       .  A
C1093      O1094   1.263       .  A
C1093      C1232   1.486       .  S
O1094     Cr1099   1.985       .  S
O1095     Cr1099   1.988       .  S
O1095      C1096   1.258       .  A
C1096      C1252   1.478       .  S
Cr1097     O1100   1.777       .  S
Cr1098     O1100   1.772       .  S
Cr1099     O1100   1.773       .  S
C1101      C1102   1.419       .  A
C1101      C1106   1.412       .  A
C1101      C1197   1.497       .  S
C1102      C1103   1.403       .  A
C1102      H1107   1.081       .  S
C1103      C1235   1.480       .  S
C1103      C1104   1.395       .  A
C1104      C1105   1.401       .  A
C1104      H1108   1.084       .  S
C1105      C1285   1.491       .  S
C1105      C1106   1.408       .  A
C1106      H1109   1.083       .  S
C1110      C1111   1.407       .  A
C1110      C1115   1.416       .  A
C1110      C1193   1.483       .  S
C1111      C1112   1.399       .  A
C1111      H1116   1.084       .  S
C1112      C1225   1.477       .  S
C1112      C1113   1.399       .  A
C1113      C1114   1.396       .  A
C1113      H1117   1.085       .  S
C1114      C1295   1.478       .  S
C1114      C1115   1.402       .  A
C1115      H1118   1.082       .  S
C1119      C1120   1.422       .  A
C1119      C1652   1.409       .  A
C1119      C1189   1.495       .  S
C1120      C1121   1.409       .  A
C1120      H1125   1.081       .  S
C1121      C1215   1.488       .  S
C1121      C1122   1.399       .  A
C1122      C1651   1.396       .  A
C1122      H1126   1.084       .  S
C1123      C1302   1.470       .  S
C1123      C1650   1.393   1_545  A
C1123      C1124   1.394       .  A
C1124      C1647   1.403       .  A
C1124      H1127   1.084       .  S
C1128      C1657   1.414       .  A
C1128      C1133   1.416       .  A
C1128      C1185   1.490       .  S
C1129      C1656   1.425       .  A
C1129      C1130   1.413       .  A
C1129      H1134   1.081       .  S
C1130      C1315   1.490       .  S
C1130      C1659   1.397       .  A
C1131      C1658   1.396       .  A
C1131      C1132   1.392       .  A
C1131      H1135   1.085       .  S
C1132      C1205   1.474       .  S
C1132      C1133   1.401       .  A
C1133      H1136   1.081       .  S
C1137      C1142   1.406       .  A
C1137      C1182   1.491       .  S
C1138      C1139   1.403       .  A
C1138      H1143   1.084       .  S
C1139      C1255   1.480       .  S
C1140      C1141   1.397       .  A
C1140      H1144   1.085       .  S
C1141      C1275   1.476       .  S
C1141      C1142   1.399       .  A
C1142      H1145   1.084       .  S
C1146      C1151   1.426   1_455  A
C1146      C1178   1.502       .  S
C1147      C1148   1.406       .  A
C1147      H1152   1.084       .  S
C1148      C1245   1.484       .  S
C1149      C1150   1.396   1_455  A
C1149      H1153   1.085       .  S
C1150      C1265   1.492       .  S
C1150      C1151   1.414       .  A
C1151      H1154   1.081       .  S
O1155     Cr1437   2.006       .  S
O1155      C1163   1.266       .  A
O1156      C1685   1.258       .  A
C1157      O1684   1.256       .  A
C1157      O1158   1.276   1_565  A
C1157      C1190   1.481       .  S
O1158     Cr1438   2.036       .  S
O1159     Cr1438   2.016       .  S
O1159      C1160   1.264       .  A
C1160      C1177   1.492       .  S
O1161     Cr1967   1.994   1_545  S
O1162     Cr1439   1.978       .  S
O1162      C1163   1.263       .  A
C1163      C1194   1.471       .  S
O1164     Cr1173   2.033   1_655  S
O1164      C1172   1.272       .  A
O1165      C1694   1.256       .  A
C1166      O1693   1.265   1_545  A
C1166      O1167   1.259       .  A
C1166      C1186   1.487       .  S
O1167     Cr1174   1.994   1_554  S
O1168     Cr1174   1.981   1_554  S
O1168      C1169   1.264       .  A
C1169      C1181   1.476       .  S
O1170     Cr1703   2.041   1_554  S
O1171     Cr1175   1.969   1_554  S
O1171      C1172   1.258       .  A
C1172      C1198   1.482       .  S
Cr1173     O1419   1.989   1_454  S
Cr1174     O1422   1.973       .  S
Cr1174     O1423   1.998       .  S
Cr1174     O1176   1.780       .  S
Cr1175     O1953   1.980       .  S
Cr1175     O1426   2.008       .  S
Cr1175     O1698   2.006   1_556  S
C1185      C1714   1.348       .  D
C1185      H1187   1.087       .  S
C1186      C1713   1.344   1_545  D
C1186      H1188   1.084       .  S
C1189      C1718   1.344       .  D
C1189      H1191   1.087       .  S
C1190      C1717   1.338   1_565  D
C1190      H1192   1.085       .  S
C1193      C1194   1.342       .  D
C1193      H1195   1.088       .  S
C1194      H1196   1.085       .  S
C1197      C1198   1.347       .  D
C1197      H1199   1.087       .  S
C1198      H1200   1.084       .  S
C1201      C1202   1.408       .  A
C1201      C1206   1.402       .  A
C1201      H1207   1.083       .  S
C1202      C1203   1.404       .  A
C1203      C1204   1.393       .  A
C1203      H1208   1.083       .  S
C1204      C1205   1.404       .  A
C1204      H1209   1.084       .  S
C1205      C1206   1.402       .  A
C1206      H1210   1.083       .  S
C1211      C1212   1.400       .  A
C1211      C1216   1.396       .  A
C1211      H1217   1.083       .  S
C1212      C1213   1.406       .  A
C1213      C1214   1.407       .  A
C1213      H1218   1.083       .  S
C1214      C1215   1.407       .  A
C1214      H1219   1.083       .  S
C1215      C1216   1.407       .  A
C1216      H1220   1.084       .  S
C1221      C1222   1.403       .  A
C1221      C1226   1.384       .  A
C1221      H1227   1.084       .  S
C1222      C1223   1.405       .  A
C1223      C1224   1.405       .  A
C1223      H1228   1.083       .  S
C1224      C1225   1.407       .  A
C1224      H1229   1.083       .  S
C1225      C1226   1.401       .  A
C1226      H1230   1.084       .  S
C1231      C1232   1.410       .  A
C1231      C1236   1.402       .  A
C1231      H1237   1.083       .  S
C1232      C1233   1.405       .  A
C1233      C1234   1.399       .  A
C1233      H1238   1.083       .  S
C1234      C1235   1.405       .  A
C1234      H1239   1.083       .  S
C1235      C1236   1.402       .  A
C1236      H1240   1.083       .  S
C1241      C1242   1.406       .  A
C1241      C1246   1.405       .  A
C1241      H1247   1.083       .  S
C1242      C1243   1.400       .  A
C1243      C1244   1.394       .  A
C1243      H1248   1.083       .  S
C1244      C1245   1.407       .  A
C1244      H1249   1.084       .  S
C1245      C1246   1.405       .  A
C1246      H1250   1.083       .  S
C1251      C1252   1.409       .  A
C1251      C1256   1.397       .  A
C1251      H1257   1.083       .  S
C1252      C1253   1.402       .  A
C1253      C1254   1.396       .  A
C1253      H1258   1.083       .  S
C1254      C1255   1.407       .  A
C1254      H1259   1.083       .  S
C1255      C1256   1.402       .  A
C1256      H1260   1.083       .  S
C1261      C1262   1.405       .  A
C1261      C1266   1.400       .  A
C1261      H1267   1.083       .  S
C1262      C1263   1.412       .  A
C1263      C1264   1.409       .  A
C1263      H1268   1.083       .  S
C1264      C1265   1.405       .  A
C1264      H1269   1.083       .  S
C1265      C1266   1.408       .  A
C1266      H1270   1.083       .  S
C1271      C1272   1.401       .  A
C1271      C1276   1.398       .  A
C1271      H1277   1.084       .  S
C1272      C1273   1.399       .  A
C1273      C1274   1.391       .  A
C1273      H1278   1.083       .  S
C1274      C1275   1.405       .  A
C1274      H1279   1.084       .  S
C1275      C1276   1.406       .  A
C1276      H1280   1.083       .  S
C1281      C1282   1.400       .  A
C1281      C1286   1.392       .  A
C1281      H1287   1.084       .  S
C1282      C1283   1.404       .  A
C1283      C1284   1.404       .  A
C1283      H1288   1.083       .  S
C1284      C1285   1.408       .  A
C1284      H1289   1.082       .  S
C1285      C1286   1.408       .  A
C1286      H1290   1.083       .  S
C1291      C1292   1.405       .  A
C1291      C1296   1.396       .  A
C1291      H1297   1.083       .  S
C1292      C1293   1.408       .  A
C1293      C1294   1.400       .  A
C1293      H1298   1.083       .  S
C1294      C1295   1.402       .  A
C1294      H1299   1.084       .  S
C1295      C1296   1.404       .  A
C1296      H1300   1.083       .  S
C1301      C1302   1.403       .  A
C1301      C1306   1.390       .  A
C1301      H1307   1.083       .  S
C1302      C1303   1.401       .  A
C1303      C1304   1.395       .  A
C1303      H1308   1.084       .  S
C1304      C1305   1.407       .  A
C1304      H1309   1.082       .  S
C1305      C1306   1.403       .  A
C1306      H1310   1.083       .  S
C1311      C1312   1.406       .  A
C1311      C1316   1.408       .  A
C1311      H1317   1.084       .  S
C1312      C1313   1.400       .  A
C1313      C1314   1.396       .  A
C1313      H1318   1.083       .  S
C1314      C1315   1.408       .  A
C1314      H1319   1.084       .  S
C1315      C1316   1.407       .  A
C1316      H1320   1.082       .  S
O1321     Cr1339   2.007       .  S
O1321      C1329   1.267       .  A
O1322     Cr1339   1.987       .  S
O1322      C1323   1.259       .  A
C1323      O1324   1.266       .  A
C1323      C1536   1.472       .  S
O1324     Cr1340   2.011       .  S
O1325     Cr1340   1.973       .  S
O1325      C1326   1.261       .  A
C1326      O1327   1.272       .  A
C1326      C1546   1.471       .  S
O1327     Cr1341   2.015       .  S
O1328     Cr1341   1.983       .  S
O1328      C1329   1.260       .  A
C1329      C1576   1.476       .  S
O1330     Cr1339   1.973       .  S
O1330      C1338   1.260       .  A
O1331     Cr1339   2.021       .  S
O1331      C1332   1.268       .  A
C1332      O1333   1.259       .  A
C1332      C1526   1.480       .  S
O1333     Cr1340   1.968       .  S
O1334     Cr1340   2.005       .  S
O1334      C1335   1.262       .  A
C1335      O1336   1.260       .  A
C1335      C1556   1.486       .  S
O1336     Cr1341   1.986       .  S
O1337     Cr1341   2.015       .  S
O1337      C1338   1.267       .  A
C1338      C1569   1.482       .  S
Cr1339     O1342   1.770       .  S
Cr1340     O1342   1.773       .  S
Cr1341     O1342   1.774       .  S
O1343     Cr1361   2.000       .  S
O1343      C1351   1.267       .  A
O1344     Cr1361   1.978       .  S
O1344      C1345   1.259       .  A
C1345      O1346   1.265       .  A
C1345      C1476   1.468       .  S
O1346     Cr1362   1.996       .  S
O1347     Cr1362   1.990       .  S
O1347      C1348   1.260       .  A
C1348      O1349   1.265       .  A
C1348      C1486   1.476       .  S
O1349     Cr1363   2.002       .  S
O1350     Cr1363   1.984       .  S
O1350      C1351   1.262       .  A
C1351      C1506   1.473       .  S
O1352     Cr1361   1.980       .  S
O1352      C1360   1.261       .  A
O1353     Cr1361   2.005       .  S
O1353      C1354   1.264       .  A
C1354      O1355   1.262       .  A
C1354      C1466   1.486       .  S
O1355     Cr1362   1.987       .  S
O1356     Cr1362   2.005       .  S
O1356      C1357   1.265       .  A
C1357      O1358   1.261       .  A
C1357      C1496   1.477       .  S
O1358     Cr1363   1.975       .  S
O1359     Cr1363   2.002       .  S
O1359      C1360   1.264       .  A
C1360      C1516   1.480       .  S
Cr1361     O1364   1.772       .  S
Cr1362     O1364   1.770       .  S
Cr1363     O1364   1.773       .  S
C1365      C1366   1.415       .  A
C1365      C1370   1.415       .  A
C1365      C1461   1.496       .  S
C1366      C1367   1.398       .  A
C1366      H1371   1.081       .  S
C1367      C1499   1.477       .  S
C1367      C1368   1.394       .  A
C1368      C1369   1.398       .  A
C1368      H1372   1.085       .  S
C1369      C1549   1.485       .  S
C1369      C1370   1.409       .  A
C1370      H1373   1.083       .  S
C1374      C1375   1.414       .  A
C1374      C1379   1.418       .  A
C1374      C1457   1.492       .  S
C1375      C1376   1.404       .  A
C1375      H1380   1.084       .  S
C1376      C1489   1.485       .  S
C1376      C1377   1.396       .  A
C1377      C1378   1.395       .  A
C1377      H1381   1.085       .  S
C1378      C1559   1.479       .  S
C1378      C1379   1.407       .  A
C1379      H1382   1.082       .  S
C1383      C1384   1.412       .  A
C1383      C1916   1.420       .  A
C1383      C1453   1.494       .  S
C1384      C1385   1.402       .  A
C1384      H1389   1.084       .  S
C1385      C1479   1.480       .  S
C1385      C1386   1.396       .  A
C1386      C1915   1.394       .  A
C1386      H1390   1.085       .  S
C1387      C1566   1.479       .  S
C1387      C1914   1.397   1_545  A
C1387      C1388   1.402       .  A
C1388      C1911   1.415   1_545  A
C1388      H1391   1.081       .  S
C1392      C1921   1.424       .  A
C1392      C1397   1.415       .  A
C1392      C1449   1.503       .  S
C1393      C1920   1.422   1_545  A
C1393      C1394   1.412       .  A
C1393      H1398   1.081       .  S
C1394      C1579   1.486       .  S
C1394      C1923   1.398       .  A
C1395      C1922   1.398       .  A
C1395      C1396   1.392       .  A
C1395      H1399   1.085       .  S
C1396      C1469   1.484       .  S
C1396      C1397   1.403       .  A
C1397      H1400   1.084       .  S
C1401      C1406   1.420       .  A
C1401      C1446   1.494   1_655  S
C1402      C1403   1.401       .  A
C1402      H1407   1.084       .  S
C1403      C1519   1.478       .  S
C1404      C1405   1.395       .  A
C1404      H1408   1.085       .  S
C1405      C1539   1.478       .  S
C1405      C1406   1.405       .  A
C1406      H1409   1.081       .  S
C1410      C1415   1.413   1_455  A
C1410      C1442   1.485       .  S
C1411      C1412   1.405       .  A
C1411      H1416   1.084       .  S
C1412      C1509   1.484       .  S
C1413      C1414   1.395   1_455  A
C1413      H1417   1.085   1_455  S
C1414      C1529   1.474       .  S
C1414      C1415   1.399       .  A
C1415      H1418   1.082       .  S
O1419      C1427   1.261       .  A
O1420      C1949   1.272       .  A
C1421      O1948   1.271   1_545  A
C1421      O1422   1.261       .  A
C1421      C1454   1.477       .  S
O1423      C1424   1.261       .  A
C1424      C1441   1.478       .  S
O1425     Cr1703   1.978       .  S
O1426      C1427   1.265       .  A
C1427      C1458   1.487       .  S
O1428     Cr1437   1.990       .  S
O1428      C1436   1.261       .  A
O1429      C1958   1.265       .  A
C1430      O1957   1.262   1_545  A
C1430      O1431   1.260       .  A
C1430      C1450   1.495       .  S
O1431     Cr1438   1.998       .  S
O1432     Cr1438   2.032       .  S
O1432      C1433   1.276       .  A
C1433      C1445   1.483       .  S
O1434     Cr1967   1.964   1_545  S
O1435     Cr1439   1.999       .  S
O1435      C1436   1.263       .  A
C1436      C1462   1.475       .  S
Cr1438     O1440   1.785   1_545  S
Cr1439     O1689   2.001       .  S
Cr1439     O1962   1.963       .  S
C1449      C1978   1.351       .  D
C1449      H1451   1.087       .  S
C1450      C1977   1.353   1_545  D
C1450      H1452   1.084       .  S
C1453      C1982   1.345       .  D
C1453      H1455   1.087       .  S
C1454      C1981   1.346   1_545  D
C1454      H1456   1.085       .  S
C1457      C1458   1.350       .  D
C1457      H1459   1.087       .  S
C1458      H1460   1.085       .  S
C1461      C1462   1.348       .  D
C1461      H1463   1.086       .  S
C1462      H1464   1.083       .  S
C1465      C1466   1.410       .  A
C1465      C1470   1.402       .  A
C1465      H1471   1.083       .  S
C1466      C1467   1.405       .  A
C1467      C1468   1.397       .  A
C1467      H1472   1.083       .  S
C1468      C1469   1.407       .  A
C1468      H1473   1.083       .  S
C1469      C1470   1.402       .  A
C1470      H1474   1.083       .  S
C1475      C1476   1.400       .  A
C1475      C1480   1.391       .  A
C1475      H1481   1.084       .  S
C1476      C1477   1.404       .  A
C1477      C1478   1.403       .  A
C1477      H1482   1.083       .  S
C1478      C1479   1.405       .  A
C1478      H1483   1.083       .  S
C1479      C1480   1.405       .  A
C1480      H1484   1.084       .  S
C1485      C1486   1.402       .  A
C1485      C1490   1.390       .  A
C1485      H1491   1.084       .  S
C1486      C1487   1.406       .  A
C1487      C1488   1.407       .  A
C1487      H1492   1.083       .  S
C1488      C1489   1.407       .  A
C1488      H1493   1.083       .  S
C1489      C1490   1.405       .  A
C1490      H1494   1.084       .  S
C1495      C1496   1.409       .  A
C1495      C1500   1.399       .  A
C1495      H1501   1.082       .  S
C1496      C1497   1.403       .  A
C1497      C1498   1.393       .  A
C1497      H1502   1.083       .  S
C1498      C1499   1.405       .  A
C1498      H1503   1.083       .  S
C1499      C1500   1.402       .  A
C1500      H1504   1.084       .  S
C1505      C1506   1.406       .  A
C1505      C1510   1.406       .  A
C1505      H1511   1.083       .  S
C1506      C1507   1.400       .  A
C1507      C1508   1.391       .  A
C1507      H1512   1.084       .  S
C1508      C1509   1.405       .  A
C1508      H1513   1.084       .  S
C1509      C1510   1.406       .  A
C1510      H1514   1.083       .  S
C1515      C1516   1.409       .  A
C1515      C1520   1.400       .  A
C1515      H1521   1.083       .  S
C1516      C1517   1.404       .  A
C1517      C1518   1.395       .  A
C1517      H1522   1.083       .  S
C1518      C1519   1.405       .  A
C1518      H1523   1.083       .  S
C1519      C1520   1.402       .  A
C1520      H1524   1.083       .  S
C1525      C1526   1.405       .  A
C1525      C1530   1.391       .  A
C1525      H1531   1.083       .  S
C1526      C1527   1.408       .  A
C1527      C1528   1.403       .  A
C1527      H1532   1.083       .  S
C1528      C1529   1.403       .  A
C1528      H1533   1.083       .  S
C1529      C1530   1.402       .  A
C1530      H1534   1.084       .  S
C1535      C1536   1.401       .  A
C1535      C1540   1.395       .  A
C1535      H1541   1.084       .  S
C1536      C1537   1.405       .  A
C1537      C1538   1.406       .  A
C1537      H1542   1.083       .  S
C1538      C1539   1.405       .  A
C1538      H1543   1.083       .  S
C1539      C1540   1.403       .  A
C1540      H1544   1.083       .  S
C1545      C1546   1.399       .  A
C1545      C1550   1.394       .  A
C1545      H1551   1.083       .  S
C1546      C1547   1.406       .  A
C1547      C1548   1.405       .  A
C1547      H1552   1.083       .  S
C1548      C1549   1.405       .  A
C1548      H1553   1.083       .  S
C1549      C1550   1.408       .  A
C1550      H1554   1.084       .  S
C1555      C1556   1.405       .  A
C1555      C1560   1.397       .  A
C1555      H1561   1.083       .  S
C1556      C1557   1.409       .  A
C1557      C1558   1.402       .  A
C1557      H1562   1.083       .  S
C1558      C1559   1.402       .  A
C1558      H1563   1.083       .  S
C1559      C1560   1.405       .  A
C1560      H1564   1.083       .  S
C1565      C1566   1.403       .  A
C1565      C1570   1.394       .  A
C1565      H1571   1.083       .  S
C1566      C1567   1.404       .  A
C1567      C1568   1.403       .  A
C1567      H1572   1.084       .  S
C1568      C1569   1.408       .  A
C1568      H1573   1.082       .  S
C1569      C1570   1.405       .  A
C1570      H1574   1.084       .  S
C1575      C1576   1.407       .  A
C1575      C1580   1.408       .  A
C1575      H1581   1.084       .  S
C1576      C1577   1.399       .  A
C1577      C1578   1.395       .  A
C1577      H1582   1.083       .  S
C1578      C1579   1.407       .  A
C1578      H1583   1.084       .  S
C1579      C1580   1.406       .  A
C1580      H1584   1.082       .  S
O1585     Cr1603   2.004       .  S
O1585      C1593   1.268       .  A
O1586     Cr1603   1.968       .  S
O1586      C1587   1.256       .  A
C1587      O1588   1.267       .  A
C1587      C1800   1.462       .  S
O1588     Cr1604   2.003       .  S
O1589     Cr1604   1.976       .  S
O1589      C1590   1.258       .  A
C1590      O1591   1.266       .  A
C1590      C1810   1.469       .  S
O1591     Cr1605   2.003       .  S
O1592     Cr1605   1.973       .  S
O1592      C1593   1.258       .  A
C1593      C1840   1.468       .  S
O1594     Cr1603   1.975       .  S
O1594      C1602   1.260       .  A
O1595     Cr1603   2.014       .  S
O1595      C1596   1.265       .  A
C1596      O1597   1.261       .  A
C1596      C1790   1.485       .  S
O1597     Cr1604   1.978       .  S
O1598     Cr1604   2.011       .  S
O1598      C1599   1.267       .  A
C1599      O1600   1.260       .  A
C1599      C1820   1.480       .  S
O1600     Cr1605   1.974       .  S
O1601     Cr1605   2.009       .  S
O1601      C1602   1.265       .  A
C1602      C1833   1.481       .  S
Cr1603     O1606   1.772       .  S
Cr1604     O1606   1.771       .  S
Cr1605     O1606   1.773       .  S
O1607     Cr1625   2.002       .  S
O1607      C1615   1.268       .  A
O1608     Cr1625   1.985       .  S
O1608      C1609   1.259       .  A
C1609      O1610   1.267       .  A
C1609      C1740   1.479       .  S
O1610     Cr1626   2.011       .  S
O1611     Cr1626   1.977       .  S
O1611      C1612   1.259       .  A
C1612      O1613   1.264       .  A
C1612      C1750   1.464       .  S
O1613     Cr1627   1.993       .  S
O1614     Cr1627   1.981       .  S
O1614      C1615   1.262       .  A
C1615      C1770   1.471       .  S
O1616     Cr1625   1.985       .  S
O1616      C1624   1.260       .  A
O1617     Cr1625   2.003       .  S
O1617      C1618   1.265       .  A
C1618      O1619   1.260       .  A
C1618      C1730   1.476       .  S
O1619     Cr1626   1.971       .  S
O1620     Cr1626   2.020       .  S
O1620      C1621   1.267       .  A
C1621      O1622   1.263       .  A
C1621      C1760   1.487       .  S
O1622     Cr1627   1.983       .  S
O1623     Cr1627   1.996       .  S
O1623      C1624   1.262       .  A
C1624      C1780   1.482       .  S
Cr1625     O1628   1.775       .  S
Cr1626     O1628   1.771       .  S
Cr1627     O1628   1.774       .  S
C1629      C1630   1.419       .  A
C1629      C1634   1.412       .  A
C1629      C1725   1.494       .  S
C1630      C1631   1.404       .  A
C1630      H1635   1.081       .  S
C1631      C1763   1.481       .  S
C1631      C1632   1.395       .  A
C1632      C1633   1.400       .  A
C1632      H1636   1.084       .  S
C1633      C1813   1.486       .  S
C1633      C1634   1.406       .  A
C1634      H1637   1.084       .  S
C1638      C1639   1.405       .  A
C1638      C1643   1.416       .  A
C1638      C1721   1.481       .  S
C1639      C1640   1.397       .  A
C1639      H1644   1.084       .  S
C1640      C1753   1.470       .  S
C1640      C1641   1.396       .  A
C1641      C1642   1.394       .  A
C1641      H1645   1.085       .  S
C1642      C1823   1.473       .  S
C1642      C1643   1.401       .  A
C1643      H1646   1.082       .  S
C1647      C1648   1.426   1_545  A
C1647      C1717   1.492       .  S
C1648      C1649   1.415       .  A
C1648      H1653   1.082       .  S
C1649      C1743   1.491       .  S
C1649      C1650   1.397       .  A
C1650      H1654   1.085       .  S
C1651      C1830   1.480       .  S
C1651      C1652   1.401       .  A
C1652      H1655   1.084       .  S
C1656      C1661   1.409   1_545  A
C1656      C1713   1.498   1_545  S
C1657      C1658   1.404       .  A
C1657      H1662   1.084       .  S
C1658      C1843   1.481       .  S
C1659      C1660   1.393   1_545  A
C1659      H1663   1.085       .  S
C1660      C1733   1.475       .  S
C1660      C1661   1.399       .  A
C1661      H1664   1.084       .  S
C1665      C1670   1.415   1_455  A
C1665      C1710   1.488       .  S
C1666      C1667   1.406       .  A
C1666      H1671   1.084       .  S
C1667      C1783   1.487       .  S
C1668      C1669   1.396       .  A
C1668      H1672   1.084       .  S
C1669      C1803   1.477       .  S
C1669      C1670   1.402       .  A
C1670      H1673   1.082       .  S
C1674      C1679   1.421   1_455  A
C1674      C1706   1.495       .  S
C1675      C1676   1.405       .  A
C1675      H1680   1.084       .  S
C1676      C1773   1.482       .  S
C1677      C1678   1.395   1_455  A
C1677      H1681   1.085       .  S
C1678      C1793   1.486       .  S
C1678      C1679   1.408       .  A
C1679      H1682   1.081       .  S
O1683     Cr1965   2.004       .  S
O1683      C1691   1.266       .  A
C1685      O1686   1.273       .  A
C1685      C1718   1.482       .  S
O1686     Cr1966   2.030       .  S
O1687     Cr1966   2.003       .  S
O1687      C1688   1.262       .  A
C1688      C1705   1.486       .  S
O1690     Cr1967   1.977       .  S
O1690      C1691   1.265       .  A
C1691      C1722   1.469       .  S
O1692     Cr1701   2.025   1_655  S
O1692      C1700   1.269       .  A
C1694      O1695   1.262       .  A
C1694      C1714   1.478       .  S
O1695     Cr1702   2.001       .  S
O1696     Cr1702   1.985       .  S
O1696      C1697   1.263       .  A
C1697      C1709   1.476       .  S
O1699     Cr1703   1.971   1_564  S
O1699      C1700   1.257       .  A
C1700      C1726   1.481       .  S
Cr1701     O1947   1.977   1_454  S
Cr1702     O1950   1.966   1_554  S
Cr1702     O1951   1.997   1_554  S
Cr1702     O1704   1.780       .  S
Cr1703     O1954   2.037   1_545  S
C1713      H1715   1.087       .  S
C1714      H1716   1.084       .  S
C1717      H1719   1.087       .  S
C1718      H1720   1.084       .  S
C1721      C1722   1.340       .  D
C1721      H1723   1.087       .  S
C1722      H1724   1.084       .  S
C1725      C1726   1.346       .  D
C1725      H1727   1.087       .  S
C1726      H1728   1.085       .  S
C1729      C1730   1.407       .  A
C1729      C1734   1.399       .  A
C1729      H1735   1.083       .  S
C1730      C1731   1.404       .  A
C1731      C1732   1.393       .  A
C1731      H1736   1.083       .  S
C1732      C1733   1.404       .  A
C1732      H1737   1.083       .  S
C1733      C1734   1.402       .  A
C1734      H1738   1.083       .  S
C1739      C1740   1.400       .  A
C1739      C1744   1.396       .  A
C1739      H1745   1.084       .  S
C1740      C1741   1.408       .  A
C1741      C1742   1.409       .  A
C1741      H1746   1.083       .  S
C1742      C1743   1.406       .  A
C1742      H1747   1.083       .  S
C1743      C1744   1.409       .  A
C1744      H1748   1.084       .  S
C1749      C1750   1.402       .  A
C1749      C1754   1.385       .  A
C1749      H1755   1.084       .  S
C1750      C1751   1.404       .  A
C1751      C1752   1.401       .  A
C1751      H1756   1.083       .  S
C1752      C1753   1.405       .  A
C1752      H1757   1.083       .  S
C1753      C1754   1.401       .  A
C1754      H1758   1.084       .  S
C1759      C1760   1.411       .  A
C1759      C1764   1.404       .  A
C1759      H1765   1.083       .  S
C1760      C1761   1.405       .  A
C1761      C1762   1.397       .  A
C1761      H1766   1.083       .  S
C1762      C1763   1.405       .  A
C1762      H1767   1.083       .  S
C1763      C1764   1.402       .  A
C1764      H1768   1.083       .  S
C1769      C1770   1.405       .  A
C1769      C1774   1.404       .  A
C1769      H1775   1.083       .  S
C1770      C1771   1.400       .  A
C1771      C1772   1.394       .  A
C1771      H1776   1.083       .  S
C1772      C1773   1.405       .  A
C1772      H1777   1.084       .  S
C1773      C1774   1.406       .  A
C1774      H1778   1.083       .  S
C1779      C1780   1.408       .  A
C1779      C1784   1.398       .  A
C1779      H1785   1.083       .  S
C1780      C1781   1.403       .  A
C1781      C1782   1.397       .  A
C1781      H1786   1.083       .  S
C1782      C1783   1.409       .  A
C1782      H1787   1.083       .  S
C1783      C1784   1.403       .  A
C1784      H1788   1.083       .  S
C1789      C1790   1.403       .  A
C1789      C1794   1.394       .  A
C1789      H1795   1.083       .  S
C1790      C1791   1.410       .  A
C1791      C1792   1.405       .  A
C1791      H1796   1.082       .  S
C1792      C1793   1.404       .  A
C1792      H1797   1.083       .  S
C1793      C1794   1.407       .  A
C1794      H1798   1.083       .  S
C1799      C1800   1.403       .  A
C1799      C1804   1.401       .  A
C1799      H1805   1.084       .  S
C1800      C1801   1.398       .  A
C1801      C1802   1.392       .  A
C1801      H1806   1.083       .  S
C1802      C1803   1.406       .  A
C1802      H1807   1.084       .  S
C1803      C1804   1.405       .  A
C1804      H1808   1.082       .  S
C1809      C1810   1.399       .  A
C1809      C1814   1.392       .  A
C1809      H1815   1.084       .  S
C1810      C1811   1.405       .  A
C1811      C1812   1.404       .  A
C1811      H1816   1.083       .  S
C1812      C1813   1.407       .  A
C1812      H1817   1.083       .  S
C1813      C1814   1.407       .  A
C1814      H1818   1.083       .  S
C1819      C1820   1.406       .  A
C1819      C1824   1.395       .  A
C1819      H1825   1.083       .  S
C1820      C1821   1.407       .  A
C1821      C1822   1.399       .  A
C1821      H1826   1.083       .  S
C1822      C1823   1.402       .  A
C1822      H1827   1.083       .  S
C1823      C1824   1.403       .  A
C1824      H1828   1.083       .  S
C1829      C1830   1.405       .  A
C1829      C1834   1.395       .  A
C1829      H1835   1.083       .  S
C1830      C1831   1.403       .  A
C1831      C1832   1.400       .  A
C1831      H1836   1.084       .  S
C1832      C1833   1.408       .  A
C1832      H1837   1.082       .  S
C1833      C1834   1.405       .  A
C1834      H1838   1.083       .  S
C1839      C1840   1.405       .  A
C1839      C1844   1.404       .  A
C1839      H1845   1.084       .  S
C1840      C1841   1.399       .  A
C1841      C1842   1.391       .  A
C1841      H1846   1.083       .  S
C1842      C1843   1.406       .  A
C1842      H1847   1.084       .  S
C1843      C1844   1.405       .  A
C1844      H1848   1.082       .  S
O1849     Cr1867   2.005       .  S
O1849      C1857   1.266       .  A
O1850     Cr1867   1.998       .  S
O1850      C1851   1.261       .  A
C1851      O1852   1.266       .  A
C1851      C2064   1.482       .  S
O1852     Cr1868   2.012       .  S
O1853     Cr1868   1.971       .  S
O1853      C1854   1.261       .  A
C1854      O1855   1.270       .  A
C1854      C2074   1.461       .  S
O1855     Cr1869   2.004       .  S
O1856     Cr1869   1.988       .  S
O1856      C1857   1.260       .  A
C1857      C2104   1.479       .  S
O1858     Cr1867   1.978       .  S
O1858      C1866   1.261       .  A
O1859     Cr1867   2.014       .  S
O1859      C1860   1.268       .  A
C1860      O1861   1.261       .  A
C1860      C2054   1.477       .  S
O1861     Cr1868   1.972       .  S
O1862     Cr1868   2.012       .  S
O1862      C1863   1.263       .  A
C1863      O1864   1.261       .  A
C1863      C2084   1.492       .  S
O1864     Cr1869   1.995       .  S
O1865     Cr1869   2.008       .  S
O1865      C1866   1.264       .  A
C1866      C2097   1.481       .  S
Cr1867     O1870   1.772       .  S
Cr1868     O1870   1.775       .  S
Cr1869     O1870   1.777       .  S
O1871     Cr1889   2.009       .  S
O1871      C1879   1.268       .  A
O1872     Cr1889   1.980       .  S
O1872      C1873   1.259       .  A
C1873      O1874   1.264       .  A
C1873      C2004   1.466       .  S
O1874     Cr1890   1.994       .  S
O1875     Cr1890   1.982       .  S
O1875      C1876   1.260       .  A
C1876      O1877   1.268       .  A
C1876      C2014   1.472       .  S
O1877     Cr1891   2.009       .  S
O1878     Cr1891   1.989       .  S
O1878      C1879   1.263       .  A
C1879      C2034   1.479       .  S
O1880     Cr1889   1.974       .  S
O1880      C1888   1.260       .  A
O1881     Cr1889   2.016       .  S
O1881      C1882   1.267       .  A
C1882      O1883   1.262       .  A
C1882      C1994   1.488       .  S
O1883     Cr1890   1.982       .  S
O1884     Cr1890   2.003       .  S
O1884      C1885   1.263       .  A
C1885      O1886   1.261       .  A
C1885      C2024   1.483       .  S
O1886     Cr1891   1.984       .  S
O1887     Cr1891   2.003       .  S
O1887      C1888   1.264       .  A
C1888      C2044   1.478       .  S
Cr1889     O1892   1.774       .  S
Cr1890     O1892   1.771       .  S
Cr1891     O1892   1.775       .  S
C1893      C1894   1.418       .  A
C1893      C1898   1.408       .  A
C1893      C1989   1.490       .  S
C1894      C1895   1.404       .  A
C1894      H1899   1.082       .  S
C1895      C2027   1.483       .  S
C1895      C1896   1.395       .  A
C1896      C1897   1.398       .  A
C1896      H1900   1.084       .  S
C1897      C2077   1.479       .  S
C1897      C1898   1.403       .  A
C1898      H1901   1.084       .  S
C1902      C1903   1.414       .  A
C1902      C1907   1.423       .  A
C1902      C1985   1.500       .  S
C1903      C1904   1.405       .  A
C1903      H1908   1.084       .  S
C1904      C2017   1.483       .  S
C1904      C1905   1.397       .  A
C1905      C1906   1.393       .  A
C1905      H1909   1.085       .  S
C1906      C2087   1.484       .  S
C1906      C1907   1.411       .  A
C1907      H1910   1.082       .  S
C1911      C1912   1.410       .  A
C1911      C1981   1.488       .  S
C1912      C1913   1.403       .  A
C1912      H1917   1.084       .  S
C1913      C2007   1.481       .  S
C1913      C1914   1.399       .  A
C1914      H1918   1.085       .  S
C1915      C2094   1.480       .  S
C1915      C1916   1.405       .  A
C1916      H1919   1.080       .  S
C1920      C1925   1.417       .  A
C1920      C1977   1.502       .  S
C1921      C1922   1.414       .  A
C1921      H1926   1.081       .  S
C1922      C2107   1.489       .  S
C1923      C1924   1.392   1_545  A
C1923      H1927   1.085       .  S
C1924      C1997   1.483       .  S
C1924      C1925   1.403       .  A
C1925      H1928   1.084       .  S
C1929      C1934   1.423       .  A
C1929      C1974   1.498   1_655  S
C1930      C1931   1.402       .  A
C1930      H1935   1.084       .  S
C1931      C2047   1.476       .  S
C1932      C1933   1.397       .  A
C1932      H1936   1.085       .  S
C1933      C2067   1.487       .  S
C1933      C1934   1.409       .  A
C1934      H1937   1.081       .  S
C1938      C1943   1.413   1_455  A
C1938      C1970   1.486       .  S
C1939      C1940   1.412       .  A
C1939      H1944   1.083       .  S
C1940      C2037   1.488       .  S
C1941      C1942   1.394       .  A
C1941      H1945   1.085       .  S
C1942      C2057   1.470       .  S
C1942      C1943   1.398       .  A
C1943      H1946   1.082       .  S
O1947      C1955   1.261       .  A
C1949      O1950   1.258       .  A
C1949      C1982   1.479       .  S
O1951      C1952   1.262       .  A
C1952      C1969   1.480       .  S
O1954      C1955   1.273       .  A
C1955      C1986   1.491       .  S
O1956     Cr1965   1.998       .  S
O1956      C1964   1.262       .  A
C1958      O1959   1.259       .  A
C1958      C1978   1.494       .  S
O1959     Cr1966   1.990       .  S
O1960     Cr1966   2.028       .  S
O1960      C1961   1.274       .  A
C1961      C1973   1.480       .  S
O1963     Cr1967   1.990       .  S
O1963      C1964   1.258       .  A
C1964      C1990   1.474       .  S
Cr1966     O1968   1.783       .  S
C1977      H1979   1.087       .  S
C1978      H1980   1.084       .  S
C1981      H1983   1.087       .  S
C1982      H1984   1.083       .  S
C1985      C1986   1.349       .  D
C1985      H1987   1.087       .  S
C1986      H1988   1.085       .  S
C1989      C1990   1.342       .  D
C1989      H1991   1.087       .  S
C1990      H1992   1.085       .  S
C1993      C1994   1.410       .  A
C1993      C1998   1.404       .  A
C1993      H1999   1.083       .  S
C1994      C1995   1.405       .  A
C1995      C1996   1.397       .  A
C1995      H2000   1.083       .  S
C1996      C1997   1.405       .  A
C1996      H2001   1.083       .  S
C1997      C1998   1.403       .  A
C1998      H2002   1.083       .  S
C2003      C2004   1.400       .  A
C2003      C2008   1.392       .  A
C2003      H2009   1.084       .  S
C2004      C2005   1.403       .  A
C2005      C2006   1.402       .  A
C2005      H2010   1.083       .  S
C2006      C2007   1.406       .  A
C2006      H2011   1.083       .  S
C2007      C2008   1.406       .  A
C2008      H2012   1.083       .  S
C2013      C2014   1.400       .  A
C2013      C2018   1.390       .  A
C2013      H2019   1.084       .  S
C2014      C2015   1.406       .  A
C2015      C2016   1.406       .  A
C2015      H2020   1.083       .  S
C2016      C2017   1.406       .  A
C2016      H2021   1.083       .  S
C2017      C2018   1.405       .  A
C2018      H2022   1.084       .  S
C2023      C2024   1.410       .  A
C2023      C2028   1.401       .  A
C2023      H2029   1.082       .  S
C2024      C2025   1.403       .  A
C2025      C2026   1.396       .  A
C2025      H2030   1.083       .  S
C2026      C2027   1.407       .  A
C2026      H2031   1.083       .  S
C2027      C2028   1.402       .  A
C2028      H2032   1.083       .  S
C2033      C2034   1.407       .  A
C2033      C2038   1.408       .  A
C2033      H2039   1.083       .  S
C2034      C2035   1.401       .  A
C2035      C2036   1.398       .  A
C2035      H2040   1.083       .  S
C2036      C2037   1.407       .  A
C2036      H2041   1.084       .  S
C2037      C2038   1.406       .  A
C2038      H2042   1.083       .  S
C2043      C2044   1.408       .  A
C2043      C2048   1.399       .  A
C2043      H2049   1.083       .  S
C2044      C2045   1.404       .  A
C2045      C2046   1.394       .  A
C2045      H2050   1.083       .  S
C2046      C2047   1.405       .  A
C2046      H2051   1.083       .  S
C2047      C2048   1.402       .  A
C2048      H2052   1.083       .  S
C2053      C2054   1.404       .  A
C2053      C2058   1.394       .  A
C2053      H2059   1.083       .  S
C2054      C2055   1.408       .  A
C2055      C2056   1.399       .  A
C2055      H2060   1.083       .  S
C2056      C2057   1.401       .  A
C2056      H2061   1.083       .  S
C2057      C2058   1.402       .  A
C2058      H2062   1.084       .  S
C2063      C2064   1.403       .  A
C2063      C2068   1.395       .  A
C2063      H2069   1.084       .  S
C2064      C2065   1.407       .  A
C2065      C2066   1.411       .  A
C2065      H2070   1.082       .  S
C2066      C2067   1.407       .  A
C2066      H2071   1.083       .  S
C2067      C2068   1.404       .  A
C2068      H2072   1.083       .  S
C2073      C2074   1.398       .  A
C2073      C2078   1.391       .  A
C2073      H2079   1.083       .  S
C2074      C2075   1.403       .  A
C2075      C2076   1.401       .  A
C2075      H2080   1.083       .  S
C2076      C2077   1.405       .  A
C2076      H2081   1.083       .  S
C2077      C2078   1.406       .  A
C2078      H2082   1.084       .  S
C2083      C2084   1.405       .  A
C2083      C2088   1.401       .  A
C2083      H2089   1.083       .  S
C2084      C2085   1.410       .  A
C2085      C2086   1.405       .  A
C2085      H2090   1.083       .  S
C2086      C2087   1.404       .  A
C2086      H2091   1.083       .  S
C2087      C2088   1.406       .  A
C2088      H2092   1.083       .  S
C2093      C2094   1.404       .  A
C2093      C2098   1.394       .  A
C2093      H2099   1.083       .  S
C2094      C2095   1.404       .  A
C2095      C2096   1.404       .  A
C2095      H2100   1.083       .  S
C2096      C2097   1.408       .  A
C2096      H2101   1.083       .  S
C2097      C2098   1.404       .  A
C2098      H2102   1.083       .  S
C2103      C2104   1.407       .  A
C2103      C2108   1.409       .  A
C2103      H2109   1.084       .  S
C2104      C2105   1.400       .  A
C2105      C2106   1.396       .  A
C2105      H2110   1.083       .  S
C2106      C2107   1.408       .  A
C2106      H2111   1.084       .  S
C2107      C2108   1.407       .  A
C2108      H2112   1.082       .  S
