geometry optimzed in LAMMPS
_audit_creation_date              2020-11-30 
_audit_creation_method            'lammps2cif' 
_symmetry_space_group_name_H-M    'P1' 
_symmetry_Int_Tables_number       1 
_symmetry_cell_setting            triclinic 
loop_ 
_symmetry_equiv_pos_as_xyz 
  x,y,z 
_cell_length_a                    26.33834024 
_cell_length_b                    25.81207531723963 
_cell_length_c                    42.24877595781305 
_cell_angle_alpha                 89.45270453242426 
_cell_angle_beta                  90.19078053803533 
_cell_angle_gamma                 119.07789531325321 
loop_ 
_atom_site_label 
_atom_site_type_symbol 
_atom_site_fract_x 
_atom_site_fract_y 
_atom_site_fract_z 
_atom_site_charge 
C1          C  0.10434677  0.11800907  0.13446786     0.81400
N2          N  0.13932711  0.10124270  0.15023290    -0.76900
C3          C  0.16129321  0.12454240  0.17896681     0.83900
N4          N  0.15148621  0.16800605  0.19001152    -0.76800
C5          C  0.10712909  0.17501987  0.17842220     0.84000
N6          N  0.08474724  0.15132475  0.14975109    -0.78500
C7          C  0.21004328  0.05617412  0.24836749     0.46700
H8          H  0.20960063  0.05546392  0.27471727    -0.02400
C9          C  0.21141245  0.05862680  0.18658754     0.46700
H10         H  0.21184878  0.05928542  0.16023987    -0.02400
C11         C  0.27159400  0.08413011  0.23425023    -0.16100
C12         C  0.17759005  0.99463684  0.23411234    -0.15800
C13         C  0.18008308  0.08906060  0.23392001    -0.16200
C14         C  0.27211335  0.08718797  0.20110279    -0.16200
C15         C  0.17765851  0.99542275  0.20077052    -0.15700
C16         C  0.18392915  0.09355780  0.20075295    -0.16000
C17         C  0.04058043  0.22483914  0.18607879     0.46700
H18         H  0.04068838  0.22614376  0.15975615    -0.02400
C19         C  0.03954807  0.22101890  0.24780117     0.46700
H20         H  0.03941329  0.21972835  0.27411491    -0.02400
C21         C  0.06777837  0.28633095  0.20071631    -0.16100
C22         C  0.97918142  0.19150435  0.20056645    -0.15800
C23         C  0.07527358  0.19620226  0.19992174    -0.16200
C24         C  0.06758643  0.28449240  0.23404957    -0.16200
C25         C  0.97888348  0.18774829  0.23358825    -0.15700
C26         C  0.07158532  0.19137433  0.23302531    -0.16000
C27         C  0.37563049  0.13327961  0.13226427     0.81400
N28         N  0.32418140  0.10954993  0.14866089    -0.76900
C29         C  0.32473902  0.11881403  0.18034403     0.83900
N30         N  0.37569826  0.15476625  0.19391089    -0.76800
C31         C  0.42636703  0.16837688  0.18016614     0.84000
N32         N  0.42677081  0.15923065  0.14868449    -0.78500
C33         C  0.16027292  0.39168204  0.13703524     0.81400
N34         N  0.12315931  0.33937635  0.15182854    -0.76900
C35         C  0.09687210  0.34016090  0.17931417     0.83900
N36         N  0.10585825  0.39277412  0.18980915    -0.76800
C37         C  0.14945464  0.44442273  0.17931562     0.84000
N38         N  0.17633540  0.44421641  0.15200421    -0.78500
C39         C  0.37673236  0.16493305  0.29901285     0.81400
N40         N  0.42696411  0.17975390  0.28317677    -0.76900
C41         C  0.42593286  0.15508388  0.25489123     0.83900
N42         N  0.37433900  0.11236569  0.24390357    -0.76800
C43         C  0.32390598  0.10627484  0.25555498     0.84000
N44         N  0.32495155  0.13125702  0.28398279    -0.78500
C45         C  0.15980227  0.38696547  0.29801967     0.81400
N46         N  0.17585402  0.43965870  0.28277407    -0.76900
C47         C  0.14961198  0.44071627  0.25532054     0.83900
N48         N  0.10626043  0.38960744  0.24485743    -0.76800
C49         C  0.09663973  0.33678614  0.25566217     0.84000
N50         N  0.12265415  0.33502928  0.28322568    -0.78500
C51         C  0.11069324  0.12472294  0.30213692     0.81400
N52         N  0.08769267  0.15431758  0.28547458    -0.76900
C53         C  0.08978382  0.15559399  0.25336235     0.83900
N54         N  0.11142830  0.12494567  0.23922111    -0.76800
C55         C  0.14327454  0.10517515  0.25400599     0.84000
N56         N  0.14170614  0.10299434  0.28620788    -0.78500
Zn57       Zn  0.38465871  0.39652360  0.51556101     1.49700
Zn58       Zn  0.31581968  0.32033336  0.45740242     1.49400
Zn59       Zn  0.38569896  0.46433892  0.45406877     1.49100
Zn60       Zn  0.45680605  0.39151106  0.45707673     1.49500
O61         O  0.38602483  0.39322209  0.47044529    -1.82900
O62         O  0.31327829  0.33117226  0.53346598    -0.73600
O63         O  0.26843894  0.34191247  0.42809225    -0.73400
O64         O  0.38157093  0.51720789  0.48887494    -0.72900
O65         O  0.26652095  0.26875911  0.49456410    -0.73600
O66         O  0.39018419  0.47087900  0.53142871    -0.73200
O67         O  0.31970369  0.43988135  0.42313588    -0.73800
O68         O  0.50910015  0.46525305  0.43097971    -0.73100
O69         O  0.33732337  0.27220909  0.42904778    -0.73900
O70         O  0.45786618  0.51251248  0.42823104    -0.73300
O71         O  0.43350358  0.32334203  0.42669354    -0.73800
O72         O  0.50109561  0.38246071  0.49508696    -0.73700
O73         O  0.44733865  0.38639100  0.53450079    -0.73500
C74         C  0.27190153  0.28267170  0.52372555     0.78300
C75         C  0.27732446  0.39021408  0.41489933     0.78800
C76         C  0.38620781  0.51348011  0.51875415     0.77800
C77         C  0.50217826  0.50792087  0.42043271     0.78200
C78         C  0.38524032  0.28064544  0.41738321     0.79300
C79         C  0.48966129  0.38071490  0.52455196     0.78300
Zn80       Zn  0.38482569  0.36411151  0.01727099     1.49700
Zn81       Zn  0.38154814  0.29751089  0.95575836     1.49400
Zn82       Zn  0.31146179  0.37030798  0.95922991     1.49100
Zn83       Zn  0.45261462  0.44021260  0.95764054     1.49500
O84         O  0.38255738  0.36843402  0.97209861    -1.82900
O85         O  0.38270552  0.28994027  0.03268933    -0.73600
O86         O  0.31449478  0.25504109  0.92691553    -0.73400
O87         O  0.26565137  0.37521281  0.99715271    -0.72900
O88         O  0.37886435  0.23999558  0.98937178    -0.73600
O89         O  0.31945746  0.36952781  0.03625662    -0.73200
O90         O  0.26174469  0.30026267  0.93148047    -0.73800
O91         O  0.42903447  0.48647233  0.92824907    -0.73100
O92         O  0.44981506  0.32045223  0.92786503    -0.73900
O93         O  0.33277045  0.44015268  0.92992060    -0.73300
O94         O  0.50164475  0.41843065  0.92976799    -0.73800
O95         O  0.49950571  0.49349912  0.99439079    -0.73700
O96         O  0.45289543  0.43393970  0.03501820    -0.73500
C97         C  0.37990827  0.24476336  0.01929811     0.78300
C98         C  0.27096333  0.26082982  0.91898116     0.78800
C99         C  0.27685414  0.37527953  0.02655765     0.77800
C100        C  0.38068163  0.48086306  0.91878368     0.78200
C101        C  0.49278139  0.36894417  0.91869221     0.79300
C102        C  0.49254354  0.48282904  0.02406245     0.78300
C103        C  0.38433467  0.12236189  0.63457728     0.81400
N104        N  0.43502764  0.14609520  0.65151160    -0.76900
C105        C  0.43341838  0.13766491  0.68333685     0.83900
N106        N  0.38206889  0.10282306  0.69685726    -0.76800
C107        C  0.33197131  0.08944315  0.68260183     0.84000
N108        N  0.33242630  0.09713448  0.65063316    -0.78500
C109        C  0.38007846  0.09501095  0.80287946     0.81400
N110        N  0.32951681  0.07917023  0.78688772    -0.76900
C111        C  0.33055891  0.10244611  0.75776631     0.83900
N112        N  0.38239982  0.14457406  0.74625289    -0.76800
C113        C  0.43288458  0.15111720  0.75832012     0.84000
N114        N  0.43166995  0.12768246  0.78741881    -0.78500
C115        C  0.21877006  0.03810303  0.68823463     0.46700
H116        H  0.21969235  0.03836541  0.66190203    -0.02400
C117        C  0.21660801  0.03819032  0.74994579     0.46700
H118        H  0.21568940  0.03792045  0.77628385    -0.02400
C119        C  0.19191882  0.97561895  0.70272057    -0.16100
C120        C  0.27924031  0.07028004  0.70295446    -0.15800
C121        C  0.18397822  0.06684546  0.70176290    -0.16200
C122        C  0.18786267  0.97562577  0.73581970    -0.16200
C123        C  0.27844641  0.07282003  0.73607431    -0.15700
C124        C  0.18323193  0.06670714  0.73518267    -0.16000
C125        C  0.04973387  0.20674170  0.75034937     0.46700
H126        H  0.04984481  0.20678549  0.77670672    -0.02400
C127        C  0.04970789  0.20643660  0.68869132     0.46700
H128        H  0.04955194  0.20645205  0.66233703    -0.02400
C129        C  0.98867380  0.18211220  0.73621891    -0.16100
C130        C  0.08563561  0.26885458  0.73590112    -0.15800
C131        C  0.07486828  0.16915839  0.73632599    -0.16200
C132        C  0.98881296  0.17969195  0.70306716    -0.16200
C133        C  0.08543310  0.26887655  0.70253367    -0.15700
C134        C  0.07504707  0.16929101  0.70304909    -0.16000
C135        C  0.10331751  0.37893369  0.63880842     0.81400
N136        N  0.14069261  0.42955484  0.65419991    -0.76900
C137        C  0.16635801  0.42658279  0.68138917     0.83900
N138        N  0.15662952  0.37298379  0.69123849    -0.76800
C139        C  0.11184586  0.32246857  0.68069928     0.84000
N140        N  0.08570198  0.32498980  0.65324508    -0.78500
C141        C  0.16217269  0.15613767  0.63732204     0.81400
N142        N  0.18110351  0.12056697  0.65171532    -0.76900
C143        C  0.15731510  0.09413144  0.68005877     0.83900
N144        N  0.11417844  0.10179438  0.69162629    -0.76800
C145        C  0.10259107  0.14404844  0.68130409     0.84000
N146        N  0.12567930  0.17030851  0.65326852    -0.78500
C147        C  0.16303867  0.15218937  0.80082314     0.81400
N148        N  0.18148185  0.11808284  0.78511901    -0.76900
C149        C  0.15723597  0.09378351  0.75684211     0.83900
N150        N  0.11354367  0.10164646  0.74638372    -0.76800
C151        C  0.10230763  0.14310135  0.75773964     0.84000
N152        N  0.12624013  0.16779473  0.78587483    -0.78500
C153        C  0.11006802  0.37467662  0.80236753     0.81400
N154        N  0.09081747  0.32222910  0.78653024    -0.76900
C155        C  0.11229172  0.32202180  0.75738709     0.83900
N156        N  0.15366191  0.37357752  0.74592317    -0.76800
C157        C  0.16678030  0.42622953  0.75784653     0.84000
N158        N  0.14554907  0.42710960  0.78698064    -0.78500
C159        C  0.17398128  0.21794987  0.84698677     0.24800
C160        C  0.18547706  0.17528924  0.83293125    -0.23300
C161        C  0.21845764  0.15492359  0.85008361     0.19700
C162        C  0.24250368  0.17943511  0.87935092     0.24700
C163        C  0.23434575  0.22505347  0.89228408    -0.23300
C164        C  0.19791989  0.24228787  0.87627091     0.19600
F165        F  0.18795633  0.28541449  0.88789089    -0.13200
F166        F  0.14146982  0.23843837  0.83201038    -0.15600
F167        F  0.27558997  0.15969436  0.89441149    -0.15600
F168        F  0.22874838  0.11201346  0.83845192    -0.13200
C169        C  0.10328309  0.42824573  0.85061946     0.24800
C170        C  0.08930856  0.37468574  0.83517905    -0.23300
C171        C  0.05448627  0.32088139  0.85145482     0.19700
C172        C  0.03052562  0.32053491  0.88093704     0.24700
C173        C  0.04014549  0.37389504  0.89500063    -0.23300
C174        C  0.07908656  0.42785196  0.88012244     0.19600
F175        F  0.09137955  0.48061178  0.89309172    -0.13200
F176        F  0.13845471  0.48147201  0.83675354    -0.15600
F177        F  0.99547420  0.26726380  0.89489693    -0.15600
F178        F  0.04164049  0.26787394  0.83861219    -0.13200
C179        C  0.43022370  0.09159499  0.85332639     0.24800
C180        C  0.37898460  0.07041599  0.83514787    -0.23300
C181        C  0.32713483  0.02393712  0.84780581     0.19700
C182        C  0.32746806  0.99646191  0.87642814     0.24700
C183        C  0.37956201  0.01476592  0.89338693    -0.23300
C184        C  0.43047735  0.06414233  0.88202613     0.19600
F185        F  0.48410020  0.58134582  0.89473272    -0.13200
F186        F  0.48081004  0.13815504  0.84315000    -0.15600
F187        F  0.27704391  0.94927903  0.88633804    -0.15600
F188        F  0.27612458  0.00252304  0.83186906    -0.11400
C189        C  0.22500856  0.18660801  0.55386303     0.24800
C190        C  0.23145189  0.24320306  0.54803129    -0.23300
C191        C  0.21071214  0.26828091  0.57033913     0.19700
C192        C  0.18784710  0.23966783  0.59903127     0.24700
C193        C  0.18463044  0.18459954  0.60607134    -0.23300
C194        C  0.20159342  0.15735482  0.58274992     0.19600
F195        F  0.19615099  0.10293178  0.58802737    -0.13200
F196        F  0.24505935  0.16163314  0.53265123    -0.15600
F197        F  0.17215362  0.26802804  0.62059264    -0.15600
F198        F  0.21600873  0.32271451  0.56507259    -0.13200
C199        C  0.33617863  0.05728043  0.55289101     0.24800
C200        C  0.38959026  0.06886782  0.53977274    -0.23300
C201        C  0.44111123  0.10971808  0.55457606     0.19700
C202        C  0.43954915  0.13330813  0.58398159     0.24700
C203        C  0.38594671  0.11547808  0.59950329    -0.23300
C204        C  0.33422625  0.08072093  0.58239953     0.19600
F205        F  0.28141661  0.06423979  0.59538923    -0.13200
F206        F  0.28569877  0.01757877  0.53900118    -0.15600
F207        F  0.49097155  0.16867050  0.59840942    -0.15600
F208        F  0.48985640  0.60975525  0.54123013    -0.13200
C209        C  0.05285416  0.44082673  0.57182219     0.24800
C210        C  0.03270248  0.39495690  0.54962149    -0.23300
C211        C  0.03846524  0.34459615  0.55599303     0.19700
C212        C  0.06182661  0.33920184  0.58497075     0.24700
C213        C  0.07932190  0.38400061  0.60789982    -0.23300
C214        C  0.07570201  0.43549763  0.60061332     0.19600
F215        F  0.09141965  0.47977112  0.62193559    -0.13200
F216        F  0.60656673  0.46553916  0.53865195    -0.15600
F217        F  0.06709163  0.29021555  0.59063710    -0.15600
F218        F  0.01804298  0.29915098  0.53516910    -0.13200
C219        C  0.11060596  0.07109724  0.35253343     0.24800
C220        C  0.09474475  0.10900187  0.33617275    -0.23300
C221        C  0.05600840  0.12417840  0.35120676     0.19700
C222        C  0.53557048  0.10033732  0.38121121     0.24700
C223        C  0.03935752  0.05331456  0.39396316    -0.23300
C224        C  0.08333129  0.04367636  0.38104096     0.19600
F225        F  0.09760175  0.00471814  0.39476581    -0.13200
F226        F  0.14976415  0.05711138  0.34008350    -0.15600
F227        F  0.49332805  0.60750630  0.39562988    -0.15600
F228        F  0.04093998  0.16259113  0.33752764    -0.13200
C229        C  0.21743059  0.43993603  0.34632835     0.24800
C230        C  0.18570115  0.38670972  0.32938732    -0.23300
C231        C  0.17956063  0.33375759  0.34279382     0.19700
C232        C  0.20674778  0.33446172  0.37139801     0.24700
C233        C  0.24069557  0.38810370  0.38753641    -0.23300
C234        C  0.24460427  0.44059170  0.37489603     0.19600
F235        F  0.27587802  0.49324880  0.38976086    -0.13200
F236        F  0.22302509  0.49205329  0.33528943    -0.15600
F237        F  0.20206980  0.28264787  0.38229278    -0.15600
F238        F  0.14899686  0.28114229  0.32782016    -0.13200
C239        C  0.43518545  0.26000948  0.37260847     0.24800
C240        C  0.38424396  0.24377078  0.39020615    -0.23300
C241        C  0.33126034  0.19746214  0.37874887     0.19700
C242        C  0.32884542  0.17112920  0.34953563     0.24700
C243        C  0.37928576  0.19026176  0.33095526    -0.23300
C244        C  0.43276864  0.23402334  0.34342009     0.19600
F245        F  0.48318598  0.25391224  0.32700998    -0.13200
F246        F  0.48759409  0.30332734  0.38275186    -0.15600
F247        F  0.27668524  0.12744399  0.33938575    -0.15600
F248        F  0.28108001  0.17852712  0.39527131    -0.13200
C249        C  0.24526748  0.43400581  0.10020557     0.24800
C250        C  0.18744309  0.39113704  0.10656588    -0.23300
C251        C  0.15656943  0.34697000  0.08389327     0.19700
C252        C  0.18409079  0.34419583  0.05609308     0.24700
C253        C  0.24280702  0.38502248  0.05091021    -0.23300
C254        C  0.27262324  0.43066617  0.07275172     0.19600
F255        F  0.32943009  0.47072917  0.06809227    -0.13200
F256        F  0.27673998  0.47697836  0.12146671    -0.15600
F257        F  0.15463274  0.29962317  0.03532416    -0.15600
F258        F  0.10009942  0.30600383  0.08885917    -0.13200
C259        C  0.32448574  0.12587522  0.08073210     0.24800
C260        C  0.37660798  0.14177566  0.09729847    -0.23300
C261        C  0.42987974  0.17857850  0.08172724     0.19700
C262        C  0.43064909  0.20684671  0.05329415     0.24700
C263        C  0.37862552  0.19817516  0.03976613    -0.23300
C264        C  0.32557735  0.15473252  0.05233403     0.19600
F265        F  0.27475652  0.14511122  0.03902234    -0.13200
F266        F  0.27219089  0.08734913  0.09349192    -0.15600
F267        F  0.48237612  0.24809501  0.04096469    -0.15600
F268        F  0.48163971  0.19319146  0.09553731    -0.13200
C269        C  0.99790728  0.04316187  0.06807921     0.24800
C270        C  0.03009328  0.02705792  0.04789264    -0.23300
C271        C  0.08890495  0.04687847  0.05426905     0.19700
C272        C  0.11416111  0.07932250  0.08178112     0.24700
C273        C  0.08070790  0.09203959  0.10318539    -0.23300
C274        C  0.02286890  0.07532533  0.09546136     0.19600
F275        F  0.98879618  0.08545905  0.11569583    -0.13200
F276        F  0.94084514  0.02432504  0.06221717    -0.15600
F277        F  0.17071927  0.09662885  0.08802823    -0.15600
F278        F  0.61048711  0.51662572  0.03896883    -0.13200
C279        C  0.09882777  0.61744789  0.13774013     0.81400
N280        N  0.13548112  0.60209425  0.15273060    -0.76900
C281        C  0.15866477  0.62607524  0.18116232     0.83900
N282        N  0.14834506  0.66884881  0.19267264    -0.76800
C283        C  0.10283224  0.67458179  0.18186358     0.84000
N284        N  0.07913241  0.65012479  0.15352422    -0.78500
C285        C  0.20707458  0.55556985  0.24937025     0.46700
H286        H  0.20633399  0.55362892  0.27571234    -0.02400
C287        C  0.20896827  0.56046665  0.18767275     0.46700
H288        H  0.20973909  0.56231117  0.16132918    -0.02400
C289        C  0.26870510  0.58330421  0.23544265    -0.16100
C290        C  0.17384156  0.49468070  0.23430968    -0.15800
C291        C  0.17845651  0.59020447  0.23559751    -0.16200
C292        C  0.26951381  0.58747562  0.20230336    -0.16200
C293        C  0.17433214  0.49683925  0.20106975    -0.15700
C294        C  0.18207419  0.59542300  0.20246580    -0.16000
C295        C  0.03710109  0.72418450  0.18984131     0.46700
H296        H  0.03720341  0.72514172  0.16348692    -0.02400
C297        C  0.03626897  0.72113422  0.25155043     0.46700
H298        H  0.03610064  0.72000088  0.27790111    -0.02400
C299        C  0.06459317  0.78569802  0.20414975    -0.16100
C300        C  0.97595077  0.69136320  0.20414414    -0.15800
C301        C  0.07157082  0.69567240  0.20372631    -0.16200
C302        C  0.06470989  0.78462085  0.23747351    -0.16200
C303        C  0.97539047  0.68783525  0.23715896    -0.15700
C304        C  0.06853440  0.69136891  0.23687634    -0.16000
C305        C  0.37429842  0.63345971  0.13401584     0.81400
N306        N  0.32243535  0.60985078  0.15004247    -0.76900
C307        C  0.32233945  0.61915205  0.18174330     0.83900
N308        N  0.37293389  0.65505823  0.19564938    -0.76800
C309        C  0.42388496  0.66878767  0.18228427     0.84000
N310        N  0.42496823  0.65946731  0.15085399    -0.78500
C311        C  0.16152237  0.88388112  0.13997051     0.81400
N312        N  0.12265428  0.83390318  0.15577229    -0.76900
C313        C  0.09564049  0.83808093  0.18208224     0.83900
N314        N  0.10579231  0.89215890  0.19069152    -0.76800
C315        C  0.15146926  0.94193553  0.17968748     0.84000
N316        N  0.17886258  0.93828400  0.15315102    -0.78500
C317        C  0.37170917  0.66347466  0.30110177     0.81400
N318        N  0.42269253  0.67964582  0.28559335    -0.76900
C319        C  0.42276198  0.65561270  0.25716829     0.83900
N320        N  0.37169868  0.61265753  0.24570980    -0.76800
C321        C  0.32063852  0.60528890  0.25708010     0.84000
N322        N  0.32057752  0.62936048  0.28560831    -0.78500
C323        C  0.15744968  0.88899111  0.30087040     0.81400
N324        N  0.17636019  0.94123003  0.28442516    -0.76900
C325        C  0.15234057  0.94158356  0.25598008     0.83900
N326        N  0.10866936  0.89060244  0.24580707    -0.76800
C327        C  0.09532803  0.83786172  0.25829077     0.84000
N328        N  0.11917999  0.83664877  0.28671871    -0.78500
C329        C  0.11407813  0.62814845  0.30523709     0.81400
N330        N  0.08914623  0.65670488  0.28920764    -0.76900
C331        C  0.08886527  0.65696591  0.25701808     0.83900
N332        N  0.11008990  0.62636660  0.24233521    -0.76800
C333        C  0.14337428  0.60750382  0.25635564     0.84000
N334        N  0.14426103  0.60647626  0.28852149    -0.78500
Zn335      Zn  0.39695526  0.91187567  0.51594671     1.49700
Zn336      Zn  0.31876145  0.83029177  0.46003529     1.49400
Zn337      Zn  0.38815362  0.97311852  0.45402164     1.49100
Zn338      Zn  0.45866439  0.89778060  0.45595029     1.49500
O339        O  0.39073777  0.90322071  0.47088019    -1.82900
O340        O  0.32792292  0.84778448  0.53622306    -0.73600
O341        O  0.26794064  0.84984448  0.43208623    -0.73400
O342        O  0.38246352  0.02583767  0.48862105    -0.72900
O343        O  0.27426327  0.78353488  0.49933410    -0.73600
O344        O  0.40140691  0.98639204  0.53090833    -0.73200
O345        O  0.32039798  0.94693788  0.42386371    -0.73800
O346        O  0.50975077  0.97153175  0.42999025    -0.73100
O347        O  0.33598387  0.77908185  0.43107173    -0.73900
O348        O  0.46025651  0.02092181  0.42772458    -0.73300
O349        O  0.43171236  0.82916318  0.42504588    -0.73800
O350        O  0.50506645  0.88718584  0.49287212    -0.73700
O351        O  0.46247009  0.90398819  0.53380235    -0.73500
C352        C  0.28420033  0.79947371  0.52819844     0.78300
C353        C  0.27640068  0.89697486  0.41767124     0.78800
C354        C  0.39154503  0.02537966  0.51826891     0.77800
C355        C  0.50376161  0.01492969  0.41967341     0.78200
C356        C  0.38211364  0.78629459  0.41751467     0.79300
C357        C  0.50022346  0.89212199  0.52264169     0.78300
Zn358      Zn  0.38916883  0.85843722  0.01734293     1.49700
Zn359      Zn  0.38380044  0.79317606  0.95465003     1.49400
Zn360      Zn  0.31470864  0.86815548  0.96130141     1.49100
Zn361      Zn  0.45477332  0.93629506  0.95750900     1.49500
O362        O  0.38551569  0.86407540  0.97221247    -1.82900
O363        O  0.39029544  0.78577194  0.03158804    -0.73600
O364        O  0.31560150  0.75361507  0.92568924    -0.73400
O365        O  0.27060712  0.87194808  0.00064327    -0.72900
O366        O  0.37853781  0.73301617  0.98825874    -0.73600
O367        O  0.32126154  0.85652598  0.03804381    -0.73200
O368        O  0.26336260  0.79901154  0.93309259    -0.73800
O369        O  0.43080710  0.98245780  0.92789474    -0.73100
O370        O  0.45385555  0.81710759  0.92665892    -0.73900
O371        O  0.33492128  0.93843360  0.93257201    -0.73300
O372        O  0.50468867  0.91511388  0.93019911    -0.73800
O373        O  0.50115702  0.98927598  0.99425225    -0.73700
O374        O  0.45610847  0.92930703  0.03506090    -0.73500
C375        C  0.38338519  0.73900674  0.01818689     0.78300
C376        C  0.27180386  0.76014126  0.91921071     0.78800
C377        C  0.27923095  0.86442163  0.02968142     0.77800
C378        C  0.38202103  0.97768159  0.91993863     0.78200
C379        C  0.49718604  0.86651368  0.91854366     0.79300
C380        C  0.49498173  0.97844953  0.02391608     0.78300
C381        C  0.38546175  0.62086657  0.63352060     0.81400
N382        N  0.43668738  0.64641692  0.65010304    -0.76900
C383        C  0.43566223  0.64156425  0.68218872     0.83900
N384        N  0.38454971  0.60845544  0.69622822    -0.76800
C385        C  0.33411791  0.59318852  0.68197770     0.84000
N386        N  0.33390620  0.59742028  0.64986675    -0.78500
C387        C  0.38342097  0.60026257  0.80170050     0.81400
N388        N  0.33295703  0.58481912  0.78586159    -0.76900
C389        C  0.33385640  0.60848850  0.75693924     0.83900
N390        N  0.38553817  0.65085106  0.74541575    -0.76800
C391        C  0.43596685  0.65678439  0.75719240     0.84000
N392        N  0.43490863  0.63288113  0.78615152    -0.78500
C393        C  0.22068621  0.54145617  0.68826173     0.46700
H394        H  0.22075987  0.54124658  0.66191835    -0.02400
C395        C  0.22071794  0.54268673  0.74995190     0.46700
H396        H  0.22065277  0.54307471  0.77628795    -0.02400
C397        C  0.19471473  0.47932902  0.70297931    -0.16100
C398        C  0.28168575  0.57488140  0.70243877    -0.15800
C399        C  0.18551415  0.56929188  0.70202995    -0.16200
C400        C  0.19474559  0.47973863  0.73630000    -0.16200
C401        C  0.28170891  0.57846811  0.73551474    -0.15700
C402        C  0.18548799  0.56961835  0.73539228    -0.16000
C403        C  0.04396424  0.70326278  0.74926484     0.46700
H404        H  0.04361303  0.70362543  0.77560665    -0.02400
C405        C  0.04527130  0.70222167  0.68755252     0.46700
H406        H  0.04569661  0.70185860  0.66120299    -0.02400
C407        C  0.98325886  0.67517311  0.73482356    -0.16100
C408        C  0.07510704  0.76530607  0.73449757    -0.15800
C409        C  0.07338628  0.66915684  0.73571491    -0.16200
C410        C  0.98376362  0.67235086  0.70173350    -0.16200
C411        C  0.07861689  0.76512847  0.70130120    -0.15700
C412        C  0.07345538  0.66833897  0.70246514    -0.16000
C413        C  0.11017703  0.87687980  0.63639012     0.81400
N414        N  0.14672517  0.92655967  0.65254149    -0.76900
C415        C  0.16836228  0.92279414  0.68096552     0.83900
N416        N  0.15652769  0.86842533  0.69164661    -0.76800
C417        C  0.11109469  0.81878591  0.67978111     0.84000
N418        N  0.08902096  0.82272447  0.65107701    -0.78500
C419        C  0.17087728  0.66569211  0.63988780     0.81400
N420        N  0.18776581  0.62821974  0.65370317    -0.76900
C421        C  0.15955018  0.59704127  0.68021498     0.83900
N422        N  0.11331071  0.60129443  0.69028300    -0.76800
C423        C  0.10401805  0.64598921  0.68108591     0.84000
N424        N  0.13195163  0.67731397  0.65495138    -0.78500
C425        C  0.16142378  0.65288125  0.80128040     0.81400
N426        N  0.18118484  0.61961919  0.78569404    -0.76900
C427        C  0.15948538  0.59725146  0.75668307     0.83900
N428        N  0.11773230  0.60695785  0.74514420    -0.76800
C429        C  0.10332173  0.64561313  0.75708469     0.84000
N430        N  0.12462534  0.66839474  0.78601029    -0.78500
C431        C  0.11805017  0.86885854  0.80402934     0.81400
N432        N  0.09322673  0.81687880  0.78730514    -0.76900
C433        C  0.09486473  0.81873897  0.75511406     0.83900
N434        N  0.11793523  0.87156801  0.74109224    -0.76800
C435        C  0.15102043  0.92222988  0.75589921     0.84000
N436        N  0.15000354  0.92165722  0.78808332    -0.78500
C437        C  0.17855067  0.72385731  0.84583601     0.24800
C438        C  0.18305012  0.67557168  0.83360939    -0.23300
C439        C  0.20964656  0.65012690  0.85244256     0.19700
C440        C  0.23445662  0.67475524  0.88160553     0.24700
C441        C  0.23354655  0.72559176  0.89269741    -0.23300
C442        C  0.20331925  0.74841973  0.87501505     0.19600
F443        F  0.20129592  0.79741956  0.88467246    -0.13200
F444        F  0.15342001  0.75012391  0.82878520    -0.15600
F445        F  0.26116662  0.64982938  0.89848627    -0.15600
F446        F  0.21308117  0.60210548  0.84246742    -0.13200
C447        C  0.11553075  0.92190134  0.85343180     0.24800
C448        C  0.10306419  0.86854281  0.83820614    -0.23300
C449        C  0.06817976  0.81465385  0.85449813     0.19700
C450        C  0.04134017  0.81394499  0.88319983     0.24700
C451        C  0.04821659  0.86699461  0.89633060    -0.23300
C452        C  0.08836051  0.92110638  0.88197824     0.19600
F453        F  0.09815465  0.97373324  0.89406181    -0.13200
F454        F  0.15043442  0.97537508  0.83967688    -0.15600
F455        F  0.00568677  0.76069917  0.89700374    -0.15600
F456        F  0.05660067  0.76189310  0.84185375    -0.13200
C457        C  0.43369584  0.59222856  0.85097198     0.24800
C458        C  0.38195980  0.57542225  0.83391129    -0.23300
C459        C  0.32885989  0.53342093  0.84780258     0.19700
C460        C  0.32806934  0.50555090  0.87647135     0.24700
C461        C  0.38025376  0.51907181  0.89225683    -0.23300
C462        C  0.43281391  0.56461488  0.87975291     0.19600
F463        F  0.48123694  0.08504864  0.89818923    -0.13200
F464        F  0.48580977  0.63446237  0.83961194    -0.15600
F465        F  0.27599688  0.46307457  0.88778944    -0.15600
F466        F  0.27727911  0.51710615  0.83324543    -0.11400
C467        C  0.22964794  0.70143178  0.55605198     0.24800
C468        C  0.24658717  0.76206004  0.55402020    -0.23300
C469        C  0.23631173  0.78977284  0.57979642     0.19700
C470        C  0.21201277  0.75831986  0.60764209     0.24700
C471        C  0.19781207  0.69844808  0.61043667    -0.23300
C472        C  0.20581956  0.66986187  0.58426783     0.19600
F473        F  0.19010402  0.61142350  0.58594253    -0.13200
F474        F  0.23897863  0.67369743  0.53142246    -0.15600
F475        F  0.20448470  0.78725805  0.63234202    -0.15600
F476        F  0.25146123  0.84814847  0.57830211    -0.13200
C477        C  0.33345918  0.54703872  0.55402666     0.24800
C478        C  0.38606054  0.55767916  0.54032003    -0.23300
C479        C  0.43847507  0.59925825  0.55407244     0.19700
C480        C  0.43851640  0.62548990  0.58291752     0.24700
C481        C  0.38570036  0.60976907  0.59883097    -0.23300
C482        C  0.33308501  0.57332228  0.58280550     0.19600
F483        F  0.28086239  0.55823469  0.59618539    -0.13200
F484        F  0.28226739  0.50602782  0.54134032    -0.15600
F485        F  0.49062597  0.66170368  0.59644249    -0.15600
F486        F  0.49323730  0.12163447  0.54219232    -0.13200
C487        C  0.05715462  0.94173773  0.57217435     0.24800
C488        C  0.03931711  0.89887131  0.54831771    -0.23300
C489        C  0.04903482  0.85022030  0.55236233     0.19700
C490        C  0.07278739  0.84281872  0.58088164     0.24700
C491        C  0.08716824  0.88413422  0.60551267    -0.23300
C492        C  0.08050430  0.93450764  0.60034283     0.19600
F493        F  0.09334530  0.97555362  0.62329469    -0.13200
F494        F  0.61386762  0.98107707  0.54002252    -0.15600
F495        F  0.08132104  0.79529654  0.58449518    -0.15600
F496        F  0.03223654  0.80817017  0.52968460    -0.13200
C497        C  0.11312342  0.57043192  0.35412605     0.24800
C498        C  0.09972859  0.61166672  0.33935986    -0.23300
C499        C  0.06350709  0.62843071  0.35578190     0.19700
C500        C  0.53275758  0.59424677  0.38275217     0.24700
C501        C  0.04220077  0.55174944  0.39588523    -0.23300
C502        C  0.08448612  0.54064501  0.38192411     0.19600
F503        F  0.09527412  0.49779666  0.39365867    -0.13200
F504        F  0.15062822  0.55519160  0.34059448    -0.15600
F505        F  0.49721899  0.11535071  0.39387631    -0.15600
F506        F  0.05196025  0.67066636  0.34393663    -0.13200
C507        C  0.20998759  0.94214156  0.35037728     0.24800
C508        C  0.18172252  0.88925216  0.33285227    -0.23300
C509        C  0.17818327  0.83724307  0.34605121     0.19700
C510        C  0.20549035  0.83895659  0.37480041     0.24700
C511        C  0.23736754  0.89279396  0.39110568    -0.23300
C512        C  0.23749822  0.94388364  0.37905687     0.19600
F513        F  0.26541520  0.99615339  0.39465504    -0.13200
F514        F  0.21193466  0.99281311  0.33966784    -0.15600
F515        F  0.20365436  0.78829240  0.38549884    -0.15600
F516        F  0.15096178  0.78496617  0.33046239    -0.13200
C517        C  0.42709996  0.74672353  0.37870186     0.24800
C518        C  0.37741865  0.74696943  0.39067761    -0.23300
C519        C  0.32429488  0.71428948  0.37445752     0.19700
C520        C  0.32186793  0.68558997  0.34603750     0.24700
C521        C  0.37250311  0.68874964  0.33292993    -0.23300
C522        C  0.42469970  0.71797209  0.35034804     0.19600
F523        F  0.47418082  0.71973181  0.33986854    -0.13200
F524        F  0.47870659  0.77537945  0.39409236    -0.15600
F525        F  0.27005831  0.65685246  0.33084790    -0.15600
F526        F  0.27483397  0.71250486  0.38504665    -0.13200
C527        C  0.20254642  0.91840282  0.08523387     0.24800
C528        C  0.18861812  0.87781423  0.11056891    -0.23300
C529        C  0.19939030  0.82978575  0.10734117     0.19700
C530        C  0.22588375  0.82400010  0.08010101     0.24700
C531        C  0.24155272  0.86547322  0.05518367    -0.23300
C532        C  0.22866809  0.91213984  0.05764902     0.19600
F533        F  0.24422239  0.95337861  0.03417845    -0.13200
F534        F  0.19050146  0.96378680  0.08709123    -0.15600
F535        F  0.23766437  0.77836271  0.07838385    -0.15600
F536        F  0.18660438  0.78955423  0.13114174    -0.13200
C537        C  0.32505224  0.62341302  0.08125542     0.24800
C538        C  0.37646647  0.64062242  0.09882907    -0.23300
C539        C  0.43035808  0.67650361  0.08356244     0.19700
C540        C  0.43232985  0.70204182  0.05402057     0.24700
C541        C  0.38101933  0.69208586  0.03901258    -0.23300
C542        C  0.32741268  0.64972425  0.05170604     0.19600
F543        F  0.27713113  0.63936761  0.03740333    -0.13200
F544        F  0.27214838  0.58614265  0.09387267    -0.15600
F545        F  0.48456768  0.74277684  0.04199323    -0.15600
F546        F  0.48162730  0.69320254  0.09850658    -0.13200
C547        C  0.98785558  0.53568574  0.07446911     0.24800
C548        C  0.02044592  0.52333308  0.05251828    -0.23300
C549        C  0.08047741  0.54755954  0.05693154     0.19700
C550        C  0.10676304  0.58048056  0.08419854     0.24700
C551        C  0.07328925  0.59009320  0.10704388    -0.23300
C552        C  0.01394129  0.56898938  0.10135059     0.19600
F553        F  0.98005374  0.57658991  0.12291755    -0.13200
F554        F  0.92980735  0.51312823  0.07049702    -0.15600
F555        F  0.16457909  0.60174591  0.08866673    -0.15600
F556        F  0.61016228  0.00625016  0.04084724    -0.13200
C557        C  0.60199833  0.11023911  0.13530377     0.81400
N558        N  0.63715137  0.09396459  0.15126425    -0.76900
C559        C  0.65960334  0.11808681  0.17975483     0.83900
N560        N  0.64974591  0.16161505  0.19059434    -0.76800
C561        C  0.60531925  0.16834777  0.17889470     0.84000
N562        N  0.58274243  0.14410061  0.15033922    -0.78500
C563        C  0.71049339  0.05175401  0.24899308     0.46700
H564        H  0.70979385  0.05064425  0.27534337    -0.02400
C565        C  0.71218530  0.05464547  0.18721012     0.46700
H566        H  0.71272312  0.05556221  0.16086188    -0.02400
C567        C  0.77229843  0.08132810  0.23499980    -0.16100
C568        C  0.67926505  0.99019729  0.23441852    -0.15800
C569        C  0.67953768  0.08377622  0.23459632    -0.16200
C570        C  0.77277931  0.08429785  0.20182631    -0.16200
C571        C  0.67979063  0.99131698  0.20111227    -0.15700
C572        C  0.68328767  0.08816581  0.20146113    -0.16000
C573        C  0.54026697  0.21986181  0.18620415     0.46700
H574        H  0.54061543  0.22117183  0.15987820    -0.02400
C575        C  0.53881088  0.21598985  0.24792817     0.46700
H576        H  0.53839508  0.21463706  0.27424555    -0.02400
C577        C  0.56846614  0.28139219  0.20084235    -0.16100
C578        C  0.47871655  0.18781640  0.20052713    -0.15800
C579        C  0.57379064  0.19006510  0.20020129    -0.16200
C580        C  0.56801697  0.27953894  0.23421417    -0.16200
C581        C  0.47815143  0.18384218  0.23352466    -0.15700
C582        C  0.57012413  0.18544540  0.23329305    -0.16000
C583        C  0.87573517  0.13116170  0.13276613     0.81400
N584        N  0.82455032  0.10615725  0.14941820    -0.76900
C585        C  0.82505352  0.11658423  0.18094752     0.83900
N586        N  0.87560910  0.15464903  0.19417192    -0.76800
C587        C  0.92655673  0.16983697  0.18029783     0.84000
N588        N  0.92704638  0.15976893  0.14890260    -0.78500
C589        C  0.66003301  0.38593594  0.13641929     0.81400
N590        N  0.62319700  0.33391061  0.15159979    -0.76900
C591        C  0.59789177  0.33513333  0.17935323     0.83900
N592        N  0.60760905  0.38793734  0.18982841    -0.76800
C593        C  0.65133324  0.43930521  0.17923723     0.84000
N594        N  0.67711583  0.43874522  0.15150153    -0.78500
C595        C  0.87694943  0.16532326  0.29959142     0.81400
N596        N  0.92735035  0.18187957  0.28349640    -0.76900
C597        C  0.92696456  0.15759186  0.25516432     0.83900
N598        N  0.87596453  0.11353693  0.24436952    -0.76800
C599        C  0.82488679  0.10523105  0.25628114     0.84000
N600        N  0.82528953  0.12990456  0.28476100    -0.78500
C601        C  0.65752657  0.38177520  0.29915644     0.81400
N602        N  0.67510972  0.43465025  0.28367921    -0.76900
C603        C  0.65080525  0.43578379  0.25552159     0.83900
N604        N  0.60801044  0.38479188  0.24470851    -0.76800
C605        C  0.59699639  0.33183656  0.25588400     0.84000
N606        N  0.62100350  0.32982764  0.28412234    -0.78500
C607        C  0.61359954  0.12367128  0.30280758     0.81400
N608        N  0.58924299  0.15172859  0.28596409    -0.76900
C609        C  0.58901926  0.15039826  0.25384579     0.83900
N610        N  0.60969253  0.11853267  0.23992037    -0.76800
C611        C  0.64304763  0.10043536  0.25469563     0.84000
N612        N  0.64382294  0.10104542  0.28689554    -0.78500
Zn613      Zn  0.88525473  0.40369634  0.51541323     1.49700
Zn614      Zn  0.81492351  0.32214854  0.45917824     1.49400
Zn615      Zn  0.88357240  0.46681439  0.45308740     1.49100
Zn616      Zn  0.95517086  0.39394926  0.45731019     1.49500
O617        O  0.88484585  0.39668863  0.47053976    -1.82900
O618        O  0.81804109  0.33707146  0.53556695    -0.73600
O619        O  0.76400568  0.34147252  0.43132660    -0.73400
O620        O  0.87977148  0.52196835  0.48684581    -0.72900
O621        O  0.77000373  0.27177397  0.49802916    -0.73600
O622        O  0.88641829  0.47612609  0.53001015    -0.73200
O623        O  0.81570015  0.43896320  0.42322461    -0.73800
O624        O  0.00727835  0.46762857  0.43107929    -0.73100
O625        O  0.83583581  0.27439416  0.42951612    -0.73900
O626        O  0.95542228  0.51411343  0.42663288    -0.73300
O627        O  0.93195281  0.32583547  0.42689660    -0.73800
O628        O  0.00054602  0.38685530  0.49552430    -0.73700
O629        O  0.95281263  0.40345441  0.53383791    -0.73500
C630        C  0.77726291  0.28720387  0.52703144     0.78300
C631        C  0.77230031  0.38860264  0.41692297     0.78800
C632        C  0.88301003  0.51853227  0.51683661     0.77800
C633        C  0.00027584  0.50976290  0.41973466     0.78200
C634        C  0.88371587  0.28321786  0.41750256     0.79300
C635        C  0.99376723  0.39485784  0.52465505     0.78300
Zn636      Zn  0.88311130  0.35895807  0.01813882     1.49700
Zn637      Zn  0.88807166  0.29720713  0.95579817     1.49400
Zn638      Zn  0.81608803  0.36842308  0.95876471     1.49100
Zn639      Zn  0.95713614  0.43982553  0.96033392     1.49500
O640        O  0.88631560  0.36646384  0.97291192    -1.82900
O641        O  0.88167503  0.28477359  0.03292290    -0.73600
O642        O  0.82258310  0.25542517  0.92544970    -0.73400
O643        O  0.76690598  0.37220554  0.99530386    -0.72900
O644        O  0.88440423  0.23856339  0.98932505    -0.73600
O645        O  0.81451990  0.36069548  0.03584451    -0.73200
O646        O  0.76884551  0.29966214  0.92997581    -0.73800
O647        O  0.93547655  0.48730418  0.93014395    -0.73100
O648        O  0.95862463  0.32313796  0.92896431    -0.73900
O649        O  0.83920652  0.43847559  0.92985839    -0.73300
O650        O  0.00959094  0.42086306  0.93344854    -0.73800
O651        O  0.99979585  0.49060893  0.99875057    -0.73700
O652        O  0.94811032  0.42916129  0.03777440    -0.73500
C653        C  0.88181738  0.24117051  0.01928843     0.78300
C654        C  0.77915321  0.26123422  0.91715573     0.78800
C655        C  0.77377658  0.36845495  0.02496399     0.77800
C656        C  0.88718552  0.48024564  0.91952956     0.78200
C657        C  0.00204576  0.37257973  0.92130118     0.79300
C658        C  0.98892684  0.47867187  0.02815700     0.78300
C659        C  0.88627709  0.12598788  0.63387669     0.81400
N660        N  0.93736015  0.15364346  0.65049547    -0.76900
C661        C  0.93679735  0.14650856  0.68244135     0.83900
N662        N  0.88656195  0.10926668  0.69625930    -0.76800
C663        C  0.83542077  0.09104423  0.68217603     0.84000
N664        N  0.83478931  0.09765141  0.65023293    -0.78500
C665        C  0.88696527  0.09616524  0.80172901     0.81400
N666        N  0.83557758  0.07728043  0.78600309    -0.76900
C667        C  0.83424586  0.10153395  0.75748638     0.83900
N668        N  0.88419708  0.14738229  0.74635371    -0.76800
C669        C  0.93625017  0.15749030  0.75779254     0.84000
N670        N  0.93747497  0.13318211  0.78630278    -0.78500
C671        C  0.72169286  0.03404423  0.68813585     0.46700
H672        H  0.72201193  0.03469270  0.66179670    -0.02400
C673        C  0.72134758  0.03343804  0.74986432     0.46700
H674        H  0.72116390  0.03321201  0.77620944    -0.02400
C675        C  0.69587019  0.97144718  0.70218430    -0.16100
C676        C  0.78256069  0.06809815  0.70268434    -0.15800
C677        C  0.68578925  0.06060479  0.70229213    -0.16200
C678        C  0.69636940  0.97111705  0.73564419    -0.16200
C679        C  0.78230089  0.07030696  0.73582999    -0.15700
C680        C  0.68528595  0.05972254  0.73560925    -0.16000
C681        C  0.54652830  0.19509320  0.75139096     0.46700
H682        H  0.54661841  0.19529684  0.77774952    -0.02400
C683        C  0.54642479  0.19447385  0.68975588     0.46700
H684        H  0.54625127  0.19432535  0.66339976    -0.02400
C685        C  0.48545926  0.17125786  0.73715207    -0.16100
C686        C  0.58269541  0.25713608  0.73682727    -0.15800
C687        C  0.57191632  0.15752547  0.73736888    -0.16200
C688        C  0.48560690  0.16821727  0.70410164    -0.16200
C689        C  0.58219461  0.25687514  0.70351349    -0.15700
C690        C  0.57209927  0.15779935  0.70411858    -0.16000
C691        C  0.59875210  0.36370330  0.63840020     0.81400
N692        N  0.63531573  0.41568839  0.65323884    -0.76900
C693        C  0.66053222  0.41423877  0.68109760     0.83900
N694        N  0.65081038  0.36139669  0.69204169    -0.76800
C695        C  0.60756360  0.31004198  0.68161415     0.84000
N696        N  0.58197680  0.31083879  0.65378338    -0.78500
C697        C  0.66728197  0.15467422  0.64003176     0.81400
N698        N  0.68560673  0.11832052  0.65387883    -0.76900
C699        C  0.65933845  0.08834592  0.68104039     0.83900
N700        N  0.61411703  0.09311559  0.69206861    -0.76800
C701        C  0.60255828  0.13585054  0.68243878     0.84000
N702        N  0.62836088  0.16585770  0.65555400    -0.78500
C703        C  0.66644307  0.14726758  0.80041900     0.81400
N704        N  0.68480909  0.11299845  0.78486910    -0.76900
C705        C  0.65902228  0.08646314  0.75728397     0.83900
N706        N  0.61396888  0.09257119  0.74717044    -0.76800
C707        C  0.60191251  0.13365175  0.75848053     0.84000
N708        N  0.62746333  0.16042394  0.78598533    -0.78500
C709        C  0.60207334  0.36433383  0.80120460     0.81400
N710        N  0.58463954  0.31152690  0.78615917    -0.76900
C711        C  0.60889381  0.31057080  0.75803424     0.83900
N712        N  0.65166525  0.36186538  0.74686779    -0.76800
C713        C  0.66200844  0.41469794  0.75755270     0.84000
N714        N  0.63799348  0.41619998  0.78566345    -0.78500
C715        C  0.68379076  0.21944212  0.84429901     0.24800
C716        C  0.69144602  0.17325524  0.83170442    -0.23300
C717        C  0.72312407  0.15210856  0.84949529     0.19700
C718        C  0.74878706  0.17834883  0.87821575     0.24700
C719        C  0.74330414  0.22627832  0.89003528    -0.23300
C720        C  0.70925456  0.24545175  0.87305673     0.19600
F721        F  0.70298998  0.29177705  0.88325003    -0.13200
F722        F  0.65354079  0.24153733  0.82835731    -0.15600
F723        F  0.78013812  0.15740819  0.89405658    -0.15600
F724        F  0.72994243  0.10620235  0.83915516    -0.13200
C725        C  0.59699056  0.41939512  0.84917413     0.24800
C726        C  0.57914134  0.36542342  0.83321616    -0.23300
C727        C  0.53898339  0.31228420  0.84834640     0.19700
C728        C  0.51460343  0.31325012  0.87741971     0.24700
C729        C  0.52900236  0.36747909  0.89217668    -0.23300
C730        C  0.57214601  0.42037147  0.87821794     0.19600
F731        F  0.58885126  0.47364926  0.89189268    -0.13200
F732        F  0.63748605  0.47185877  0.83650576    -0.15600
F733        F  0.47464254  0.26062740  0.89022700    -0.15600
F734        F  0.52131875  0.25883351  0.83471358    -0.13200
C735        C  0.94140396  0.08731921  0.84935433     0.24800
C736        C  0.88827539  0.07135305  0.83377324    -0.23300
C737        C  0.83631482  0.03058501  0.84913185     0.19700
C738        C  0.83756176  0.00363765  0.87782436     0.24700
C739        C  0.89075990  0.01625916  0.89214224    -0.23300
C740        C  0.94258552  0.06007005  0.87802172     0.19600
F741        F  0.99091864  0.57240354  0.89005638    -0.13200
F742        F  0.99284271  0.12838863  0.83667695    -0.15600
F743        F  0.78616707  0.96296109  0.89071527    -0.15600
F744        F  0.78366579  0.01506910  0.83615197    -0.11400
C745        C  0.73263453  0.19094619  0.55719566     0.24800
C746        C  0.73970985  0.24804095  0.55246619    -0.23300
C747        C  0.72077423  0.27286892  0.57598517     0.19700
C748        C  0.69752067  0.24256223  0.60429698     0.24700
C749        C  0.69233395  0.18626447  0.60978915    -0.23300
C750        C  0.70902443  0.16020362  0.58569784     0.19600
F751        F  0.70230252  0.10501997  0.58969390    -0.13200
F752        F  0.75170566  0.16651743  0.53511261    -0.15600
F753        F  0.68259880  0.26984945  0.62688954    -0.15600
F754        F  0.72699949  0.32796471  0.57199249    -0.13200
C755        C  0.83573175  0.06047115  0.55246250     0.24800
C756        C  0.88848501  0.07142490  0.53879217    -0.23300
C757        C  0.94068746  0.11171798  0.55335368     0.19700
C758        C  0.94023069  0.13555371  0.58291595     0.24700
C759        C  0.88718249  0.11842782  0.59883032    -0.23300
C760        C  0.83494258  0.08385870  0.58213254     0.19600
F761        F  0.78263982  0.06736099  0.59570337    -0.13200
F762        F  0.78466748  0.02103107  0.53899485    -0.15600
F763        F  0.99201172  0.17014399  0.59717118    -0.15600
F764        F  0.98582666  0.61611316  0.53923621    -0.13200
C765        C  0.57905532  0.41631031  0.55719947     0.24800
C766        C  0.52392943  0.37067501  0.54882936    -0.23300
C767        C  0.49532745  0.32096775  0.56881538     0.19700
C768        C  0.52012126  0.31798085  0.59753754     0.24700
C769        C  0.57425900  0.36490016  0.60689247    -0.23300
C770        C  0.60417713  0.41347552  0.58599587     0.19600
F771        F  0.65704895  0.45905524  0.59373624    -0.13200
F772        F  0.04726119  0.48977174  0.56627361    -0.15600
F773        F  0.48898978  0.27108213  0.61710327    -0.15600
F774        F  0.44136027  0.27687364  0.56136835    -0.13200
C775        C  0.61483515  0.07166961  0.35347260     0.24800
C776        C  0.59956165  0.11004912  0.33716267    -0.23300
C777        C  0.56246850  0.12702807  0.35256298     0.19700
C778        C  0.02881490  0.09679727  0.37966246     0.24700
C779        C  0.54485497  0.05584992  0.39525499    -0.23300
C780        C  0.58789885  0.04497307  0.38213400     0.19600
F781        F  0.60115403  0.00511223  0.39566688    -0.13200
F782        F  0.65255450  0.05603242  0.34069474    -0.15600
F783        F  0.99791592  0.61429684  0.39734840    -0.15600
F784        F  0.54845602  0.16631165  0.33899482    -0.13200
C785        C  0.70605436  0.43319826  0.34963323     0.24800
C786        C  0.68093723  0.38132001  0.33118197    -0.23300
C787        C  0.67951750  0.32977707  0.34356481     0.19700
C788        C  0.70563198  0.33109089  0.37263441     0.24700
C789        C  0.73406510  0.38404722  0.39001968    -0.23300
C790        C  0.73242582  0.43456003  0.37859533     0.19600
F791        F  0.75768480  0.48599353  0.39506153    -0.13200
F792        F  0.70605028  0.48329956  0.33957842    -0.15600
F793        F  0.70647171  0.28130720  0.38254935    -0.15600
F794        F  0.65572862  0.27863955  0.32688427    -0.13200
C795        C  0.93392720  0.26384145  0.37223709     0.24800
C796        C  0.88301123  0.24669827  0.39008178    -0.23300
C797        C  0.83055490  0.19903171  0.37899797     0.19700
C798        C  0.82867584  0.17163849  0.35013813     0.24700
C799        C  0.87905479  0.19129099  0.33140982    -0.23300
C800        C  0.93204533  0.23672423  0.34346713     0.19600
F801        F  0.98253944  0.25699804  0.32708250    -0.13200
F802        F  0.98579631  0.30905973  0.38171468    -0.15600
F803        F  0.77713518  0.12618768  0.34051967    -0.15600
F804        F  0.78040463  0.17956807  0.39560803    -0.13200
C805        C  0.73822049  0.43226272  0.09496028     0.24800
C806        C  0.68493043  0.38451577  0.10506755    -0.23300
C807        C  0.65653350  0.33467078  0.08516526     0.19700
C808        C  0.68298591  0.33107138  0.05711284     0.24700
C809        C  0.73764297  0.37740900  0.04833628    -0.23300
C810        C  0.76397219  0.42866551  0.06684655     0.19600
F811        F  0.81660571  0.47421990  0.05846719    -0.13200
F812        F  0.76760545  0.48100168  0.11317305    -0.15600
F813        F  0.65687221  0.28103373  0.03954858    -0.15600
F814        F  0.60383509  0.28870387  0.09314593    -0.13200
C815        C  0.82362708  0.12508904  0.08187662     0.24800
C816        C  0.87569696  0.13798591  0.09769389    -0.23300
C817        C  0.92872377  0.17085459  0.08117069     0.19700
C818        C  0.93007140  0.19876785  0.05242910     0.24700
C819        C  0.87872399  0.19348431  0.03961884    -0.23300
C820        C  0.82528157  0.15340259  0.05324033     0.19600
F821        F  0.77500486  0.14711680  0.04078293    -0.13200
F822        F  0.77125880  0.09104408  0.09574945    -0.15600
F823        F  0.98214311  0.23675827  0.03916351    -0.15600
F824        F  0.98009576  0.18194601  0.09429235    -0.13200
C825        C  0.50228896  0.04958134  0.06432104     0.24800
C826        C  0.52971642  0.02406811  0.04698605    -0.23300
C827        C  0.58363649  0.03174867  0.05697434     0.19700
C828        C  0.60855207  0.06227917  0.08496290     0.24700
C829        C  0.57932814  0.08477085  0.10363847    -0.23300
C830        C  0.52664997  0.07952218  0.09240820     0.19600
F831        F  0.49610291  0.09896777  0.10974256    -0.13200
F832        F  0.44947003  0.04157086  0.05518322    -0.15600
F833        F  0.66017599  0.06770059  0.09434147    -0.15600
F834        F  0.11275640  0.53616042  0.03602549    -0.13200
C835        C  0.59883743  0.61175258  0.13647074     0.81400
N836        N  0.63433305  0.59539567  0.15204357    -0.76900
C837        C  0.65651973  0.61872331  0.18075884     0.83900
N838        N  0.64618434  0.66152763  0.19213416    -0.76800
C839        C  0.60148739  0.66805912  0.18080325     0.84000
N840        N  0.57907903  0.64466566  0.15206492    -0.78500
C841        C  0.70660833  0.55086896  0.24954565     0.46700
H842        H  0.70538190  0.54895253  0.27588826    -0.02400
C843        C  0.70942416  0.55556661  0.18779862     0.46700
H844        H  0.71059617  0.55744085  0.16145511    -0.02400
C845        C  0.76864191  0.58100907  0.23604205    -0.16100
C846        C  0.67555573  0.48977051  0.23443854    -0.15800
C847        C  0.67610785  0.58337972  0.23535573    -0.16200
C848        C  0.76977635  0.58472145  0.20283680    -0.16200
C849        C  0.67644035  0.49183101  0.20112323    -0.15700
C850        C  0.68020451  0.58855324  0.20223377    -0.16000
C851        C  0.53730158  0.71984409  0.18856511     0.46700
H852        H  0.53757503  0.72109521  0.16222081    -0.02400
C853        C  0.53622836  0.71639710  0.25030323     0.46700
H854        H  0.53600491  0.71518555  0.27664056    -0.02400
C855        C  0.56659818  0.78134853  0.20304195    -0.16100
C856        C  0.47593356  0.68860371  0.20293331    -0.15800
C857        C  0.57013348  0.68945893  0.20243074    -0.16200
C858        C  0.56636763  0.77992527  0.23634205    -0.16200
C859        C  0.47534087  0.68486894  0.23597166    -0.15700
C860        C  0.56681849  0.68499924  0.23557047    -0.16000
C861        C  0.87554622  0.63255832  0.13498510     0.81400
N862        N  0.82343776  0.60781375  0.15081290    -0.76900
C863        C  0.82259247  0.61756508  0.18242306     0.83900
N864        N  0.87257197  0.65489101  0.19641890    -0.76800
C865        C  0.92402880  0.66992635  0.18332158     0.84000
N866        N  0.92589971  0.66032472  0.15198376    -0.78500
C867        C  0.66772037  0.88082092  0.14040403     0.81400
N868        N  0.62780687  0.83047255  0.15559844    -0.76900
C869        C  0.59922634  0.83410790  0.18138548     0.83900
N870        N  0.60882785  0.88800950  0.19004302    -0.76800
C871        C  0.65522184  0.93801528  0.17982555     0.84000
N872        N  0.68422804  0.93490895  0.15384731    -0.78500
C873        C  0.87086835  0.66441520  0.30196276     0.81400
N874        N  0.92199500  0.68147963  0.28648974    -0.76900
C875        C  0.92279282  0.65757811  0.25820981     0.83900
N876        N  0.87224573  0.61377864  0.24675007    -0.76800
C877        C  0.82062706  0.60518755  0.25794006     0.84000
N878        N  0.81982798  0.62926974  0.28644833    -0.78500
C879        C  0.65896514  0.88292343  0.30020966     0.81400
N880        N  0.67793541  0.93558265  0.28419788    -0.76900
C881        C  0.65418577  0.93659517  0.25580591     0.83900
N882        N  0.61072928  0.88582000  0.24523621    -0.76800
C883        C  0.59743603  0.83279048  0.25732437     0.84000
N884        N  0.62097502  0.83088180  0.28573334    -0.78500
C885        C  0.61160880  0.62246954  0.30440364     0.81400
N886        N  0.58690625  0.65082181  0.28803898    -0.76900
C887        C  0.58605654  0.64987681  0.25587340     0.83900
N888        N  0.60648821  0.61821776  0.24149452    -0.76800
C889        C  0.64008187  0.59995004  0.25580233     0.84000
N890        N  0.64146566  0.60010885  0.28797743    -0.78500
Zn891      Zn  0.89228454  0.91220158  0.51637240     1.49700
Zn892      Zn  0.81670689  0.82810364  0.46158888     1.49400
Zn893      Zn  0.88446731  0.97156026  0.45408006     1.49100
Zn894      Zn  0.95649537  0.89772858  0.45706666     1.49500
O895        O  0.88768016  0.90247460  0.47158430    -1.82900
O896        O  0.82574807  0.84677584  0.53781353    -0.73600
O897        O  0.76448449  0.84538691  0.43365972    -0.73400
O898        O  0.88116699  0.02740351  0.48778775    -0.72900
O899        O  0.77415916  0.78076620  0.50121587    -0.73600
O900        O  0.89560191  0.98619987  0.53071104    -0.73200
O901        O  0.81572520  0.94253346  0.42462122    -0.73800
O902        O  0.00660933  0.97069212  0.42996622    -0.73100
O903        O  0.83485509  0.77768881  0.43268126    -0.73900
O904        O  0.95515314  0.01789329  0.42671497    -0.73300
O905        O  0.93055112  0.82822824  0.42689708    -0.73800
O906        O  0.00422085  0.89063286  0.49450432    -0.73700
O907        O  0.96028619  0.91044125  0.53353448    -0.73500
C908        C  0.78377054  0.79700645  0.53004138     0.78300
C909        C  0.77237783  0.89188546  0.41875677     0.78800
C910        C  0.88874924  0.02667445  0.51759071     0.77800
C911        C  0.99918296  0.01274010  0.41884378     0.78200
C912        C  0.88115717  0.78513184  0.41927925     0.79300
C913        C  0.99973689  0.89989612  0.52377432     0.78300
Zn914      Zn  0.89522012  0.85851055  0.01737704     1.49700
Zn915      Zn  0.89145771  0.79368554  0.95521518     1.49400
Zn916      Zn  0.82235514  0.86920842  0.96028921     1.49100
Zn917      Zn  0.96290791  0.93639496  0.95796754     1.49500
O918        O  0.89272663  0.86455539  0.97218101    -1.82900
O919        O  0.89967398  0.78765203  0.03223418    -0.73600
O920        O  0.82512402  0.75603433  0.92508591    -0.73400
O921        O  0.77730490  0.87227567  0.99980568    -0.72900
O922        O  0.88364661  0.73298247  0.98922961    -0.73600
O923        O  0.82542316  0.85351847  0.03744523    -0.73200
O924        O  0.77200736  0.80081479  0.93061544    -0.73800
O925        O  0.94029672  0.98198807  0.92698980    -0.73100
O926        O  0.96310592  0.81654855  0.92856402    -0.73900
O927        O  0.84466017  0.94091198  0.93194408    -0.73300
O928        O  0.01439546  0.91442823  0.93246473    -0.73800
O929        O  0.00706987  0.99051086  0.99495720    -0.73700
O930        O  0.95891947  0.93131706  0.03543118    -0.73500
C931        C  0.89062751  0.73993499  0.01904808     0.78300
C932        C  0.78179150  0.76237613  0.91715726     0.78800
C933        C  0.78439598  0.86286928  0.02885542     0.77800
C934        C  0.89216712  0.97882295  0.91899431     0.78200
C935        C  0.00739069  0.86575013  0.92115109     0.79300
C936        C  0.99816501  0.98056096  0.02460167     0.78300
C937        C  0.88043154  0.61781490  0.63298575     0.81400
N938        N  0.93180646  0.64503178  0.64935085    -0.76900
C939        C  0.93165417  0.63800184  0.68127034     0.83900
N940        N  0.88135130  0.60123863  0.69534765    -0.76800
C941        C  0.83004633  0.58381387  0.68147718     0.84000
N942        N  0.82915017  0.59034080  0.64955444    -0.78500
C943        C  0.88217176  0.59203983  0.80078215     0.81400
N944        N  0.83063163  0.57317477  0.78528032    -0.76900
C945        C  0.82930639  0.59660426  0.75652891     0.83900
N946        N  0.87925624  0.64149142  0.74489934    -0.76800
C947        C  0.93110157  0.65110111  0.75626615     0.84000
N948        N  0.93251304  0.62781756  0.78500172    -0.78500
C949        C  0.71618740  0.52969698  0.68786566     0.46700
H950        H  0.71612187  0.52962410  0.66151979    -0.02400
C951        C  0.71639700  0.53044510  0.74959680     0.46700
H952        H  0.71650235  0.53074425  0.77594599    -0.02400
C953        C  0.68922322  0.46740473  0.70241019    -0.16100
C954        C  0.77734444  0.56250671  0.70213240    -0.15800
C955        C  0.68196084  0.55834625  0.70188911    -0.16200
C956        C  0.68980395  0.46772361  0.73574973    -0.16200
C957        C  0.77727914  0.56549163  0.73523312    -0.15700
C958        C  0.68190348  0.55832200  0.73520493    -0.16000
C959        C  0.54900484  0.69965892  0.75011732     0.46700
H960        H  0.54903333  0.69986682  0.77646948    -0.02400
C961        C  0.54889346  0.69866680  0.68846069     0.46700
H962        H  0.54876808  0.69827982  0.66210930    -0.02400
C963        C  0.48817230  0.67664736  0.73583210    -0.16100
C964        C  0.58601298  0.76131218  0.73552423    -0.15800
C965        C  0.57359614  0.66146943  0.73634773    -0.16200
C966        C  0.48813109  0.67323167  0.70275247    -0.16200
C967        C  0.58549524  0.76116943  0.70211453    -0.15700
C968        C  0.57349220  0.66112461  0.70312666    -0.16000
C969        C  0.60881431  0.86982445  0.63606469     0.81400
N970        N  0.64502317  0.92128320  0.65162280    -0.76900
C971        C  0.66753054  0.91875970  0.68028899     0.83900
N972        N  0.65529396  0.86537367  0.69140303    -0.76800
C973        C  0.61269245  0.81458136  0.68017668     0.84000
N974        N  0.58981830  0.81641183  0.65150439    -0.78500
C975        C  0.67013388  0.65755738  0.64057773     0.81400
N976        N  0.68600011  0.61908288  0.65411740    -0.76900
C977        C  0.65733930  0.58772473  0.68051290     0.83900
N978        N  0.61211488  0.59328124  0.69102584    -0.76800
C979        C  0.60308544  0.63799263  0.68170341     0.84000
N980        N  0.63128233  0.66925396  0.65563346    -0.78500
C981        C  0.66694009  0.64937150  0.79976478     0.81400
N982        N  0.68372262  0.61364458  0.78427781    -0.76900
C983        C  0.65773965  0.58752481  0.75662777     0.83900
N984        N  0.61412088  0.59564520  0.74625616    -0.76800
C985        C  0.60323667  0.63745383  0.75755744     0.84000
N986        N  0.62903737  0.66397127  0.78515504    -0.78500
C987        C  0.61058208  0.86724071  0.80157531     0.81400
N988        N  0.59117044  0.81473225  0.78588125    -0.76900
C989        C  0.61390787  0.81403235  0.75716554     0.83900
N990        N  0.65711940  0.86501695  0.74610156    -0.76800
C991        C  0.66914346  0.91786201  0.75741570     0.84000
N992        N  0.64674086  0.91924352  0.78613237    -0.78500
C993        C  0.67738660  0.71356120  0.84717498     0.24800
C994        C  0.69241062  0.67489523  0.83128748    -0.23300
C995        C  0.73206095  0.66051693  0.84610516     0.19700
C996        C  0.75792683  0.68601501  0.87487458     0.24700
C997        C  0.74560578  0.72732333  0.88986045    -0.23300
C998        C  0.70369439  0.73945996  0.87600438     0.19600
F999        F  0.68934004  0.77801038  0.88966494    -0.13200
F1000       F  0.63806949  0.72767362  0.83468198    -0.15600
F1001       F  0.79667981  0.67114231  0.88744775    -0.15600
F1002       F  0.74726344  0.62244555  0.83265167    -0.13200
C1003       C  0.59959408  0.92168825  0.84819746     0.24800
C1004       C  0.58855732  0.86795409  0.83398572    -0.23300
C1005       C  0.55537714  0.81468163  0.85106558     0.19700
C1006       C  0.52962103  0.81465771  0.87996745     0.24700
C1007       C  0.53602676  0.86783647  0.89260576    -0.23300
C1008       C  0.57369067  0.92161051  0.87706567     0.19600
F1009       F  0.58318490  0.97441345  0.88873528    -0.13200
F1010       F  0.63351557  0.97468511  0.83371409    -0.15600
F1011       F  0.49661291  0.76194216  0.89493683    -0.15600
F1012       F  0.54641007  0.76194383  0.83963031    -0.13200
C1013       C  0.93716253  0.58379376  0.84811298     0.24800
C1014       C  0.88379826  0.56902355  0.83314459    -0.23300
C1015       C  0.83191861  0.53152123  0.84950941     0.19700
C1016       C  0.83323225  0.50626414  0.87869958     0.24700
C1017       C  0.88642424  0.51737493  0.89246383    -0.23300
C1018       C  0.93840991  0.55838607  0.87733612     0.19600
F1019       F  0.99497080  0.07570557  0.89142032    -0.13200
F1020       F  0.98870068  0.62152073  0.83423290    -0.15600
F1021       F  0.78177456  0.46892884  0.89277995    -0.15600
F1022       F  0.77924475  0.51763763  0.83709860    -0.11400
C1023       C  0.73348893  0.69827001  0.55772084     0.24800
C1024       C  0.74778154  0.75827101  0.55600147    -0.23300
C1025       C  0.73561321  0.78417348  0.58193275     0.19700
C1026       C  0.71119457  0.75142924  0.60941051     0.24700
C1027       C  0.69849468  0.69189937  0.61169997    -0.23300
C1028       C  0.70932012  0.66532373  0.58554646     0.19600
F1029       F  0.69580786  0.60745675  0.58678366    -0.13200
F1030       F  0.74545744  0.67247610  0.53311799    -0.15600
F1031       F  0.70172057  0.77879527  0.63421738    -0.15600
F1032       F  0.74850685  0.84194065  0.58088630    -0.13200
C1033       C  0.82912273  0.54990935  0.55228074     0.24800
C1034       C  0.88199958  0.56260419  0.53813134    -0.23300
C1035       C  0.93412278  0.60424409  0.55220924     0.19700
C1036       C  0.93362900  0.62845435  0.58164740     0.24700
C1037       C  0.88068812  0.60993592  0.59798027    -0.23300
C1038       C  0.82827644  0.57365247  0.58178996     0.19600
F1039       F  0.77594250  0.55604269  0.59566197    -0.13200
F1040       F  0.77826799  0.50860482  0.53940818    -0.15600
F1041       F  0.98545183  0.66531457  0.59529811    -0.15600
F1042       F  0.99228729  0.12261451  0.54065087    -0.13200
C1043       C  0.58882346  0.92897699  0.55637117     0.24800
C1044       C  0.53620865  0.88170190  0.54593145    -0.23300
C1045       C  0.51059428  0.82863951  0.56354509     0.19700
C1046       C  0.53519437  0.82388380  0.59211534     0.24700
C1047       C  0.58617023  0.87243827  0.60387354    -0.23300
C1048       C  0.61392826  0.92432209  0.58489348     0.19600
F1049       F  0.66444343  0.97146626  0.59431162    -0.13200
F1050       F  0.04883044  0.98952103  0.56889852    -0.15600
F1051       F  0.50651385  0.77297890  0.60921297    -0.15600
F1052       F  0.45913514  0.78262295  0.55418212    -0.13200
C1053       C  0.61429346  0.56952247  0.35453195     0.24800
C1054       C  0.59791524  0.60759078  0.33872122    -0.23300
C1055       C  0.55980175  0.62265763  0.35445804     0.19700
C1056       C  0.03516485  0.59889672  0.38361981     0.24700
C1057       C  0.54302109  0.54993183  0.39621282    -0.23300
C1058       C  0.58706916  0.54091951  0.38285334     0.19600
F1059       F  0.60118950  0.50126871  0.39582125    -0.13200
F1060       F  0.65363979  0.55628572  0.34161321    -0.15600
F1061       F  0.98927444  0.11046929  0.39199446    -0.15600
F1062       F  0.54500926  0.66179175  0.34150153    -0.13200
C1063       C  0.70550501  0.93434177  0.35095923     0.24800
C1064       C  0.68191359  0.88268012  0.33239183    -0.23300
C1065       C  0.68142096  0.83161181  0.34484381     0.19700
C1066       C  0.70705399  0.83334682  0.37417296     0.24700
C1067       C  0.73395729  0.88623749  0.39172323    -0.23300
C1068       C  0.73113961  0.93605367  0.38021899     0.19600
F1069       F  0.75454220  0.98717387  0.39694200    -0.13200
F1070       F  0.70460455  0.98387560  0.34072375    -0.15600
F1071       F  0.70901258  0.78420518  0.38420979    -0.15600
F1072       F  0.65916292  0.78072281  0.32796790    -0.13200
C1073       C  0.92706745  0.74856056  0.37935997     0.24800
C1074       C  0.87681174  0.74608504  0.39234511    -0.23300
C1075       C  0.82325440  0.71137930  0.37682776     0.19700
C1076       C  0.82084368  0.68359818  0.34804694     0.24700
C1077       C  0.87181079  0.68933524  0.33398228    -0.23300
C1078       C  0.92466064  0.72058082  0.35074208     0.19600
F1079       F  0.97488669  0.72528196  0.33935683    -0.13200
F1080       F  0.97928936  0.77932797  0.39394736    -0.15600
F1081       F  0.76862127  0.65310305  0.33347985    -0.15600
F1082       F  0.77314761  0.70652123  0.38853138    -0.13200
C1083       C  0.71534781  0.92045766  0.08728343     0.24800
C1084       C  0.69524153  0.87561115  0.11075382    -0.23300
C1085       C  0.69985475  0.82428439  0.10514978     0.19700
C1086       C  0.72546769  0.81886463  0.07737876     0.24700
C1087       C  0.74659169  0.86409063  0.05428318    -0.23300
C1088       C  0.74079313  0.91472173  0.05927866     0.19600
F1089       F  0.76282711  0.96010140  0.03795417    -0.13200
F1090       F  0.71019260  0.96975438  0.09135519    -0.15600
F1091       F  0.73130838  0.76984602  0.07342790    -0.15600
F1092       F  0.68180992  0.78006470  0.12710823    -0.13200
C1093       C  0.82749577  0.62507668  0.08216186     0.24800
C1094       C  0.87816234  0.63900072  0.09975317    -0.23300
C1095       C  0.93256195  0.67171208  0.08444770     0.19700
C1096       C  0.93638416  0.69891134  0.05511878     0.24700
C1097       C  0.88615568  0.69221386  0.04005265    -0.23300
C1098       C  0.83162377  0.65181374  0.05256079     0.19600
F1099       F  0.78238695  0.64421901  0.03808487    -0.13200
F1100       F  0.77393427  0.59104951  0.09484579    -0.15600
F1101       F  0.98956013  0.73734690  0.04319174    -0.15600
F1102       F  0.98282890  0.68317158  0.09915149    -0.13200
C1103       C  0.49821424  0.55107366  0.06585501     0.24800
C1104       C  0.52692513  0.52833788  0.04739931    -0.23300
C1105       C  0.58224016  0.53865351  0.05641854     0.19700
C1106       C  0.60701431  0.56835373  0.08470522     0.24700
C1107       C  0.57624118  0.58732523  0.10458986    -0.23300
C1108       C  0.52223196  0.57982815  0.09426145     0.19600
F1109       F  0.49022490  0.59583746  0.11273787    -0.13200
F1110       F  0.44474900  0.54180447  0.05730161    -0.15600
F1111       F  0.66020023  0.57664875  0.09310751    -0.15600
F1112       F  0.12051465  0.03121229  0.03519885    -0.13200
loop_ 
_geom_bond_atom_site_label_1 
_geom_bond_atom_site_label_2 
_geom_bond_distance 
_geom_bond_site_symmetry_2 
_ccdc_geom_bond_type 
C1            N2   1.363       .  A
C1            N6   1.366       .  A
C1          C273   1.480       .  S
N2            C3   1.357       .  A
C3            N4   1.355       .  A
C3           C16   1.513       .  S
N4            C5   1.356       .  A
C5            N6   1.359       .  A
C5           C23   1.513       .  S
C7            H8   1.113       .  S
C7           C13   1.534       .  S
C7           C12   1.520   1_545  S
C7           C11   1.538       .  S
C9           H10   1.113       .  S
C9           C15   1.545   1_545  S
C9           C14   1.527       .  S
C9           C16   1.531       .  S
C11          C43   1.507       .  S
C11          C14   1.402       .  D
C12         C325   1.505       .  S
C12          C15   1.409       .  D
C13          C55   1.496       .  S
C13          C16   1.405       .  D
C14          C29   1.500       .  S
C15         C315   1.506       .  S
C17          H18   1.112       .  S
C17          C23   1.539       .  S
C17          C22   1.541   1_455  S
C17          C21   1.525       .  S
C19          H20   1.112       .  S
C19          C25   1.523   1_455  S
C19          C24   1.541       .  S
C19          C26   1.526       .  S
C21          C35   1.510       .  S
C21          C24   1.409       .  D
C22         C587   1.488       .  S
C22          C25   1.397       .  D
C23          C26   1.402       .  D
C24          C49   1.502       .  S
C25         C597   1.506       .  S
C26          C53   1.494       .  S
C27          N28   1.372       .  A
C27          N32   1.367       .  A
C27         C260   1.490       .  S
N28          C29   1.361       .  A
C29          N30   1.336       .  A
N30          C31   1.337       .  A
C31          N32   1.354       .  A
C31         C578   1.490       .  S
C33          N34   1.369       .  A
C33          N38   1.369       .  A
C33         C250   1.478       .  S
N34          C35   1.359       .  A
C35          N36   1.340       .  A
N36          C37   1.340       .  A
C37          N38   1.357       .  A
C37         C293   1.504       .  S
C39          N40   1.361       .  A
C39          N44   1.368       .  A
C39         C243   1.492       .  S
N40          C41   1.353       .  A
C41          N42   1.352       .  A
C41         C581   1.504       .  S
N42          C43   1.353       .  A
C43          N44   1.362       .  A
C45          N46   1.367       .  A
C45          N50   1.372       .  A
C45         C230   1.490       .  S
N46          C47   1.355       .  A
C47          N48   1.335       .  A
C47         C290   1.501       .  S
N48          C49   1.336       .  A
C49          N50   1.361       .  A
C51          N52   1.372       .  A
C51          N56   1.375       .  A
C51         C220   1.495       .  S
N52          C53   1.357       .  A
C53          N54   1.326       .  A
N54          C55   1.327       .  A
C55          N56   1.361       .  A
Zn57         O61   1.910       .  S
Zn57         O62   1.963       .  S
Zn57         O66   1.977       .  S
Zn57         O73   1.960       .  S
Zn58         O61   1.973       .  S
Zn58         O63   2.013       .  S
Zn58         O65   2.053       .  S
Zn58         O69   2.004       .  S
Zn59         O61   1.959       .  S
Zn59         O64   2.054       .  S
Zn59         O67   2.015       .  S
Zn59         O70   2.010       .  S
Zn60         O61   1.971       .  S
Zn60         O68   2.039       .  S
Zn60         O71   2.027       .  S
Zn60         O72   2.059       .  S
O62          C74   1.267       .  A
O63          C75   1.274       .  A
O64          C76   1.275       .  A
O65          C74   1.275       .  A
O66          C76   1.268       .  A
O67          C75   1.275       .  A
O68          C77   1.277       .  A
O69          C78   1.272       .  A
O70          C77   1.274       .  A
O71          C78   1.276       .  A
O72          C79   1.277       .  A
O73          C79   1.266       .  A
C74         C190   1.470       .  S
C75         C233   1.488       .  S
C76         C478   1.468       .  S
C77        C1057   1.494       .  S
C78         C240   1.490       .  S
C79         C766   1.466       .  S
Zn80         O84   1.913   1_554  S
Zn80         O85   1.991       .  S
Zn80         O89   1.968       .  S
Zn80         O96   1.975       .  S
Zn81         O84   1.951       .  S
Zn81         O86   1.984       .  S
Zn81         O88   2.021       .  S
Zn81         O92   1.984       .  S
Zn82         O84   1.971       .  S
Zn82         O87   2.050       .  S
Zn82         O90   2.022       .  S
Zn82         O93   2.019       .  S
Zn83         O84   1.968       .  S
Zn83         O91   2.010       .  S
Zn83         O94   2.025       .  S
Zn83         O95   2.051       .  S
O85          C97   1.270       .  A
O86          C98   1.270       .  A
O87          C99   1.276   1_556  A
O88          C97   1.270   1_556  A
O89          C99   1.268       .  A
O90          C98   1.275       .  A
O91         C100   1.273       .  A
O92         C101   1.271       .  A
O93         C100   1.274       .  A
O94         C101   1.275       .  A
O95         C102   1.275   1_556  A
O96         C102   1.268       .  A
C97         C263   1.461       .  S
C98         C163   1.484       .  S
C99         C253   1.468       .  S
C100        C461   1.489       .  S
C101        C729   1.486       .  S
C102       C1104   1.468       .  S
C103        N104   1.370       .  A
C103        N108   1.373       .  A
C103        C203   1.497       .  S
N104        C105   1.358       .  A
C105        N106   1.333       .  A
C105        C688   1.494       .  S
N106        C107   1.334       .  A
C107        N108   1.363       .  A
C107        C120   1.498       .  S
C109        N110   1.366       .  A
C109        N114   1.366       .  A
C109        C180   1.493       .  S
N110        C111   1.359       .  A
C111        N112   1.354       .  A
C111        C123   1.514       .  S
N112        C113   1.355       .  A
C113        N114   1.359       .  A
C113        C685   1.512       .  S
C115        H116   1.113       .  S
C115        C121   1.546       .  S
C115        C120   1.527       .  S
C115        C119   1.533   1_545  S
C117        H118   1.113       .  S
C117        C123   1.542       .  S
C117        C122   1.538   1_545  S
C117        C124   1.523       .  S
C119        C415   1.512       .  S
C119        C122   1.403       .  D
C120        C123   1.402       .  D
C121        C143   1.515       .  S
C121        C124   1.412       .  D
C122        C435   1.498       .  S
C124        C149   1.509       .  S
C125        H126   1.114       .  S
C125        C131   1.539       .  S
C125        C130   1.533       .  S
C125        C129   1.534   1_455  S
C127        H128   1.113       .  S
C127        C133   1.538       .  S
C127        C132   1.530   1_455  S
C127        C134   1.530       .  S
C129        C669   1.512       .  S
C129        C132   1.403       .  D
C130        C155   1.511       .  S
C130        C133   1.410       .  D
C131        C151   1.500       .  S
C131        C134   1.406       .  D
C132        C661   1.495       .  S
C133        C139   1.514       .  S
C134        C145   1.507       .  S
C135        N136   1.364       .  A
C135        N140   1.373       .  A
C135        C213   1.481       .  S
N136        C137   1.351       .  A
C137        N138   1.341       .  A
C137        C397   1.508       .  S
N138        C139   1.343       .  A
C139        N140   1.364       .  A
C141        N142   1.376       .  A
C141        N146   1.365       .  A
C141        C193   1.482       .  S
N142        C143   1.366       .  A
C143        N144   1.339       .  A
N144        C145   1.337       .  A
C145        N146   1.349       .  A
C147        N148   1.371       .  A
C147        N152   1.368       .  A
C147        C160   1.487       .  S
N148        C149   1.360       .  A
C149        N150   1.335       .  A
N150        C151   1.335       .  A
C151        N152   1.355       .  A
C153        N154   1.373       .  A
C153        N158   1.373       .  A
C153        C170   1.492       .  S
N154        C155   1.358       .  A
C155        N156   1.332       .  A
N156        C157   1.333       .  A
C157        N158   1.359       .  A
C157        C400   1.507       .  S
C159        C160   1.412       .  A
C159        C164   1.396       .  A
C159        F166   1.358       .  S
C160        C161   1.410       .  A
C161        C162   1.397       .  A
C161        F168   1.358       .  S
C162        C163   1.411       .  A
C162        F167   1.359       .  S
C163        C164   1.407       .  A
C164        F165   1.358       .  S
C169        C170   1.412       .  A
C169        C174   1.400       .  A
C169        F176   1.356       .  S
C170        C171   1.411       .  A
C171        C172   1.396       .  A
C171        F178   1.358       .  S
C172        C173   1.411       .  A
C172        F177   1.358   1_455  S
C173        C657   1.489       .  S
C173        C174   1.409       .  A
C174        F175   1.358       .  S
C179        C180   1.412       .  A
C179        C184   1.400       .  A
C179        F186   1.357       .  S
C180        C181   1.411       .  A
C181        C182   1.398   1_545  A
C181        F188   1.358       .  S
C182        C183   1.410   1_565  A
C182        F187   1.358       .  S
C183        C378   1.489   1_545  S
C183        C184   1.409       .  A
C184        F463   1.358       .  S
F185        C462   1.358       .  S
C189        C190   1.406       .  A
C189        C194   1.405       .  A
C189        F196   1.357       .  S
C190        C191   1.402       .  A
C191        C192   1.390       .  A
C191        F198   1.359       .  S
C192        C193   1.411       .  A
C192        F197   1.359       .  S
C193        C194   1.409       .  A
C194        F195   1.357       .  S
C199        C200   1.403       .  A
C199        C204   1.403       .  A
C199        F206   1.358       .  S
C200        C354   1.471       .  S
C200        C201   1.400       .  A
C201        C202   1.398       .  A
C201        F486   1.358       .  S
C202        C203   1.416       .  A
C202        F207   1.357       .  S
C203        C204   1.414       .  A
C204        F205   1.357       .  S
F208        C479   1.358       .  S
C209        C210   1.404       .  A
C209        C214   1.390       .  A
C209        F772   1.359       .  S
C210        C635   1.468   1_455  S
C210        C211   1.404       .  A
C211        C212   1.404       .  A
C211        F218   1.357       .  S
C212        C213   1.410       .  A
C212        F217   1.356       .  S
C213        C214   1.409       .  A
C214        F215   1.359       .  S
F216        C765   1.358       .  S
C219        C220   1.411       .  A
C219        C224   1.401       .  A
C219        F226   1.356       .  S
C220        C221   1.413       .  A
C221        C778   1.398       .  A
C221        F228   1.358       .  S
C222        C777   1.399       .  A
C222        C779   1.410       .  A
C222        F505   1.358       .  S
C223        C911   1.494   1_455  S
C223        C224   1.410       .  A
C223        C778   1.411       .  A
C224        F225   1.358       .  S
F227        C500   1.358       .  S
C229        C230   1.413       .  A
C229        C234   1.397       .  A
C229        F236   1.358       .  S
C230        C231   1.409       .  A
C231        C232   1.398       .  A
C231        F238   1.358       .  S
C232        C233   1.411       .  A
C232        F237   1.358       .  S
C233        C234   1.408       .  A
C234        F235   1.358       .  S
C239        C240   1.408       .  A
C239        C244   1.396       .  A
C239        F246   1.358       .  S
C240        C241   1.413       .  A
C241        C242   1.401       .  A
C241        F248   1.358       .  S
C242        C243   1.410       .  A
C242        F247   1.357       .  S
C243        C244   1.413       .  A
C244        F245   1.358       .  S
C249        C250   1.405       .  A
C249        C254   1.393       .  A
C249        F256   1.358       .  S
C250        C251   1.412       .  A
C251        C252   1.403       .  A
C251        F258   1.358       .  S
C252        C253   1.401       .  A
C252        F257   1.357       .  S
C253        C254   1.405       .  A
C254        F255   1.357       .  S
C259        C260   1.412       .  A
C259        C264   1.399       .  A
C259        F266   1.356       .  S
C260        C261   1.415       .  A
C261        C262   1.395       .  A
C261        F268   1.357       .  S
C262        C263   1.398       .  A
C262        F267   1.358       .  S
C263        C264   1.401       .  A
C264        F265   1.358       .  S
C269        C270   1.405   1_655  A
C269        C274   1.394   1_655  A
C269        F276   1.359       .  S
C270        C936   1.467   1_445  S
C270        C271   1.401       .  A
C271        C272   1.402       .  A
C271       F1112   1.358       .  S
C272        C273   1.412       .  A
C272        F277   1.357       .  S
C273        C274   1.405       .  A
C274        F275   1.357   1_455  S
F278       C1105   1.358       .  S
C279        N280   1.361       .  A
C279        N284   1.365       .  A
C279        C551   1.477       .  S
N280        C281   1.357       .  A
C281        N282   1.354       .  A
C281        C294   1.508       .  S
N282        C283   1.355       .  A
C283        N284   1.359       .  A
C283        C301   1.509       .  S
C285        H286   1.113       .  S
C285        C291   1.532       .  S
C285        C290   1.523       .  S
C285        C289   1.537       .  S
C287        H288   1.113       .  S
C287        C293   1.542       .  S
C287        C292   1.527       .  S
C287        C294   1.530       .  S
C289        C321   1.509       .  S
C289        C292   1.403       .  D
C290        C293   1.405       .  D
C291        C333   1.495       .  S
C291        C294   1.404       .  D
C292        C307   1.499       .  S
C295        H296   1.113       .  S
C295        C301   1.532       .  S
C295        C300   1.532   1_455  S
C295        C299   1.519       .  S
C297        H298   1.113       .  S
C297        C303   1.531   1_455  S
C297        C302   1.546       .  S
C297        C304   1.531       .  S
C299        C313   1.507       .  S
C299        C302   1.408       .  D
C300        C865   1.489       .  S
C300        C303   1.397       .  D
C301        C304   1.403       .  D
C302        C327   1.501       .  S
C303        C875   1.504       .  S
C304        C331   1.498       .  S
C305        N306   1.373       .  A
C305        N310   1.367       .  A
C305        C538   1.494       .  S
N306        C307   1.363       .  A
C307        N308   1.336       .  A
N308        C309   1.336       .  A
C309        N310   1.355       .  A
C309        C856   1.490       .  S
C311        N312   1.365       .  A
C311        N316   1.371       .  A
C311        C528   1.482       .  S
N312        C313   1.355       .  A
C313        N314   1.341       .  A
N314        C315   1.343       .  A
C315        N316   1.364       .  A
C317        N318   1.365       .  A
C317        N322   1.367       .  A
C317        C521   1.496       .  S
N318        C319   1.357       .  A
C319        N320   1.352       .  A
C319        C859   1.506       .  S
N320        C321   1.353       .  A
C321        N322   1.362       .  A
C323        N324   1.371       .  A
C323        N328   1.374       .  A
C323        C508   1.492       .  S
N324        C325   1.358       .  A
C325        N326   1.333       .  A
N326        C327   1.333       .  A
C327        N328   1.361       .  A
C329        N330   1.375       .  A
C329        N334   1.374       .  A
C329        C498   1.496       .  S
N330        C331   1.360       .  A
C331        N332   1.327       .  A
N332        C333   1.328       .  A
C333        N334   1.359       .  A
Zn335       O339   1.916       .  S
Zn335       O340   1.959       .  S
Zn335       O344   1.979       .  S
Zn335       O351   1.979       .  S
Zn336       O339   1.972       .  S
Zn336       O341   2.019       .  S
Zn336       O343   2.046       .  S
Zn336       O347   2.017       .  S
Zn337       O339   1.965       .  S
Zn337       O342   2.061   1_565  S
Zn337       O345   2.023       .  S
Zn337       O348   2.018   1_565  S
Zn338       O339   1.968       .  S
Zn338       O346   2.029       .  S
Zn338       O349   2.040       .  S
Zn338       O350   2.075       .  S
O340        C352   1.267       .  A
O341        C353   1.274       .  A
O342        C354   1.275       .  A
O343        C352   1.276       .  A
O344        C354   1.268   1_565  A
O345        C353   1.275       .  A
O346        C355   1.277   1_565  A
O347        C356   1.273       .  A
O348        C355   1.276       .  A
O349        C356   1.277       .  A
O350        C357   1.278       .  A
O351        C357   1.268       .  A
C352        C468   1.470       .  S
C353        C511   1.488       .  S
C355        C779   1.492       .  S
C356        C518   1.493       .  S
C357       C1044   1.475       .  S
Zn358       O362   1.917   1_554  S
Zn358       O363   1.978       .  S
Zn358       O367   1.972       .  S
Zn358       O374   1.974       .  S
Zn359       O362   1.961       .  S
Zn359       O364   1.998       .  S
Zn359       O366   2.049       .  S
Zn359       O370   2.019       .  S
Zn360       O362   1.971       .  S
Zn360       O365   2.061   1_556  S
Zn360       O368   2.029       .  S
Zn360       O371   2.018       .  S
Zn361       O362   1.967       .  S
Zn361       O369   2.020       .  S
Zn361       O372   2.020       .  S
Zn361       O373   2.044       .  S
O363        C375   1.269       .  A
O364        C376   1.273       .  A
O365        C377   1.277       .  A
O366        C375   1.274   1_556  A
O367        C377   1.268       .  A
O368        C376   1.276       .  A
O369        C378   1.274       .  A
O370        C379   1.275       .  A
O371        C378   1.274       .  A
O372        C379   1.275       .  A
O373        C380   1.275   1_556  A
O374        C380   1.268       .  A
C375        C541   1.467       .  S
C376        C441   1.484       .  S
C377        C531   1.477       .  S
C379       C1007   1.490       .  S
C380        C826   1.464   1_565  S
C381        N382   1.372       .  A
C381        N386   1.374       .  A
C381        C481   1.497       .  S
N382        C383   1.359       .  A
C383        N384   1.331       .  A
C383        C966   1.497       .  S
N384        C385   1.331       .  A
C385        N386   1.360       .  A
C385        C398   1.498       .  S
C387        N388   1.363       .  A
C387        N392   1.366       .  A
C387        C458   1.491       .  S
N388        C389   1.356       .  A
C389        N390   1.354       .  A
C389        C401   1.509       .  S
N390        C391   1.354       .  A
C391        N392   1.359       .  A
C391        C963   1.511       .  S
C393        H394   1.113       .  S
C393        C399   1.540       .  S
C393        C398   1.530       .  S
C393        C397   1.531       .  S
C395        H396   1.113       .  S
C395        C401   1.536       .  S
C395        C400   1.541       .  S
C395        C402   1.529       .  S
C397        C400   1.408       .  D
C398        C401   1.401       .  D
C399        C421   1.513       .  S
C399        C402   1.410       .  D
C402        C427   1.509       .  S
C403        H404   1.113       .  S
C403        C409   1.542       .  S
C403        C408   1.528       .  S
C403        C407   1.526   1_455  S
C405        H406   1.114       .  S
C405        C411   1.541       .  S
C405        C410   1.537   1_455  S
C405        C412   1.527       .  S
C407        C947   1.504       .  S
C407        C410   1.401       .  D
C408        C433   1.501       .  S
C408        C411   1.406       .  D
C409        C429   1.502       .  S
C409        C412   1.405       .  D
C410        C939   1.497       .  S
C411        C417   1.519       .  S
C412        C423   1.504       .  S
C413        N414   1.360       .  A
C413        N418   1.370       .  A
C413        C491   1.485       .  S
N414        C415   1.350       .  A
C415        N416   1.354       .  A
N416        C417   1.358       .  A
C417        N418   1.367       .  A
C419        N420   1.371       .  A
C419        N424   1.361       .  A
C419        C471   1.473       .  S
N420        C421   1.364       .  A
C421        N422   1.346       .  A
N422        C423   1.344       .  A
C423        N424   1.351       .  A
C425        N426   1.374       .  A
C425        N430   1.373       .  A
C425        C438   1.490       .  S
N426        C427   1.360       .  A
C427        N428   1.331       .  A
N428        C429   1.332       .  A
C429        N430   1.357       .  A
C431        N432   1.375       .  A
C431        N436   1.375       .  A
C431        C448   1.497       .  S
N432        C433   1.361       .  A
C433        N434   1.327       .  A
N434        C435   1.329       .  A
C435        N436   1.360       .  A
C437        C438   1.411       .  A
C437        C442   1.398       .  A
C437        F444   1.357       .  S
C438        C439   1.410       .  A
C439        C440   1.398       .  A
C439        F446   1.357       .  S
C440        C441   1.409       .  A
C440        F445   1.358       .  S
C441        C442   1.408       .  A
C442        F443   1.358       .  S
C447        C448   1.412       .  A
C447        C452   1.399       .  A
C447        F454   1.358       .  S
C448        C449   1.413       .  A
C449        C450   1.401       .  A
C449        F456   1.357       .  S
C450        C451   1.410       .  A
C450        F455   1.358       .  S
C451        C935   1.493       .  S
C451        C452   1.410       .  A
C452        F453   1.358       .  S
C457        C458   1.410       .  A
C457        C462   1.398       .  A
C457        F464   1.357       .  S
C458        C459   1.413       .  A
C459        C460   1.398       .  A
C459        F466   1.358       .  S
C460        C461   1.410       .  A
C460        F465   1.358       .  S
C461        C462   1.410       .  A
C467        C468   1.405       .  A
C467        C472   1.403       .  A
C467        F474   1.357       .  S
C468        C469   1.406       .  A
C469        C470   1.391       .  A
C469        F476   1.359       .  S
C470        C471   1.406       .  A
C470        F475   1.359       .  S
C471        C472   1.407       .  A
C472        F473   1.358       .  S
C477        C478   1.401       .  A
C477        C482   1.400       .  A
C477        F484   1.358       .  S
C478        C479   1.401       .  A
C479        C480   1.400       .  A
C480        C481   1.416       .  A
C480        F485   1.357       .  S
C481        C482   1.415       .  A
C482        F483   1.358       .  S
C487        C488   1.405       .  A
C487        C492   1.390       .  A
C487       F1050   1.359       .  S
C488        C913   1.477   1_455  S
C488        C489   1.407       .  A
C489        C490   1.409       .  A
C489        F496   1.357       .  S
C490        C491   1.411       .  A
C490        F495   1.357       .  S
C491        C492   1.409       .  A
C492        F493   1.359       .  S
F494       C1043   1.358       .  S
C497        C498   1.413       .  A
C497        C502   1.402       .  A
C497        F504   1.358       .  S
C498        C499   1.411       .  A
C499       C1056   1.399       .  A
C499        F506   1.357       .  S
C500       C1055   1.398       .  A
C500       C1057   1.411       .  A
C501        C633   1.494       .  S
C501       C1056   1.411       .  A
C501        C502   1.410       .  A
C502        F503   1.358       .  S
C507        C508   1.412       .  A
C507        C512   1.400       .  A
C507        F514   1.357       .  S
C508        C509   1.409       .  A
C509        C510   1.400       .  A
C509        F516   1.357       .  S
C510        C511   1.411       .  A
C510        F515   1.358       .  S
C511        C512   1.407       .  A
C512        F513   1.358       .  S
C517        C518   1.407       .  A
C517        C522   1.400       .  A
C517        F524   1.358       .  S
C518        C519   1.413       .  A
C519        C520   1.402       .  A
C519        F526   1.358       .  S
C520        C521   1.411       .  A
C520        F525   1.358       .  S
C521        C522   1.413       .  A
C522        F523   1.357       .  S
C527        C528   1.409       .  A
C527        C532   1.405       .  A
C527        F534   1.357       .  S
C528        C529   1.408       .  A
C529        C530   1.394       .  A
C529        F536   1.358       .  S
C530        C531   1.406       .  A
C530        F535   1.359       .  S
C531        C532   1.406       .  A
C532        F533   1.358       .  S
C537        C538   1.413       .  A
C537        C542   1.402       .  A
C537        F544   1.358       .  S
C538        C539   1.416       .  A
C539        C540   1.395       .  A
C539        F546   1.357       .  S
C540        C541   1.398       .  A
C540        F545   1.358       .  S
C541        C542   1.404       .  A
C542        F543   1.358       .  S
C547        C548   1.406   1_655  A
C547        C552   1.393   1_655  A
C547        F554   1.356       .  S
C548        C658   1.471   1_455  S
C548        C549   1.402       .  A
C549        C550   1.404       .  A
C549        F834   1.357       .  S
C550        C551   1.412       .  A
C550        F555   1.358       .  S
C551        C552   1.404       .  A
C552        F553   1.358   1_455  S
F556        C827   1.358       .  S
C557        N558   1.363       .  A
C557        N562   1.367       .  A
C557        C829   1.486       .  S
N558        C559   1.356       .  A
C559        N560   1.354       .  A
C559        C572   1.509       .  S
N560        C561   1.355       .  A
C561        N562   1.360       .  A
C561        C579   1.510       .  S
C563        H564   1.113       .  S
C563        C569   1.536       .  S
C563        C568   1.525   1_545  S
C563        C567   1.540       .  S
C565        H566   1.113       .  S
C565        C571   1.541   1_545  S
C565        C570   1.526       .  S
C565        C572   1.531       .  S
C567        C599   1.510       .  S
C567        C570   1.403       .  D
C568        C881   1.503       .  S
C568        C571   1.407       .  D
C569        C611   1.498       .  S
C569        C572   1.403       .  D
C570        C585   1.499       .  S
C571        C871   1.508       .  S
C573        H574   1.112       .  S
C573        C579   1.539       .  S
C573        C578   1.540       .  S
C573        C577   1.525       .  S
C575        H576   1.112       .  S
C575        C581   1.525       .  S
C575        C580   1.542       .  S
C575        C582   1.526       .  S
C577        C591   1.512       .  S
C577        C580   1.410       .  D
C578        C581   1.396       .  D
C579        C582   1.402       .  D
C580        C605   1.503       .  S
C582        C609   1.497       .  S
C583        N584   1.371       .  A
C583        N588   1.367       .  A
C583        C816   1.491       .  S
N584        C585   1.360       .  A
C585        N586   1.336       .  A
N586        C587   1.337       .  A
C587        N588   1.355       .  A
C589        N590   1.370       .  A
C589        N594   1.373       .  A
C589        C806   1.489       .  S
N590        C591   1.359       .  A
C591        N592   1.338       .  A
N592        C593   1.339       .  A
C593        N594   1.360       .  A
C593        C849   1.510       .  S
C595        N596   1.362       .  A
C595        N600   1.370       .  A
C595        C799   1.497       .  S
N596        C597   1.354       .  A
C597        N598   1.352       .  A
N598        C599   1.353       .  A
C599        N600   1.364       .  A
C601        N602   1.369       .  A
C601        N606   1.373       .  A
C601        C786   1.487       .  S
N602        C603   1.356       .  A
C603        N604   1.333       .  A
C603        C846   1.502       .  S
N604        C605   1.334       .  A
C605        N606   1.361       .  A
C607        N608   1.372       .  A
C607        N612   1.375       .  A
C607        C776   1.495       .  S
N608        C609   1.358       .  A
C609        N610   1.329       .  A
N610        C611   1.330       .  A
C611        N612   1.361       .  A
Zn613       O617   1.906       .  S
Zn613       O618   1.959       .  S
Zn613       O622   1.960       .  S
Zn613       O629   1.943       .  S
Zn614       O617   1.973       .  S
Zn614       O619   2.015       .  S
Zn614       O621   2.064       .  S
Zn614       O625   2.022       .  S
Zn615       O617   1.963       .  S
Zn615       O620   2.061       .  S
Zn615       O623   2.014       .  S
Zn615       O626   2.016       .  S
Zn616       O617   1.971       .  S
Zn616       O624   2.040   1_655  S
Zn616       O627   2.027       .  S
Zn616       O628   2.065   1_655  S
O618        C630   1.266       .  A
O619        C631   1.275       .  A
O620        C632   1.275       .  A
O621        C630   1.277       .  A
O622        C632   1.265       .  A
O623        C631   1.276       .  A
O624        C633   1.277       .  A
O625        C634   1.274       .  A
O626        C633   1.275   1_655  A
O627        C634   1.276       .  A
O628        C635   1.277   1_455  A
O629        C635   1.265       .  A
C630        C746   1.473       .  S
C631        C789   1.483       .  S
C632       C1034   1.467       .  S
C634        C796   1.495       .  S
Zn636       O640   1.917   1_554  S
Zn636       O641   1.991       .  S
Zn636       O645   1.978       .  S
Zn636       O652   1.977       .  S
Zn637       O640   1.956       .  S
Zn637       O642   1.996       .  S
Zn637       O644   2.031       .  S
Zn637       O648   1.994       .  S
Zn638       O640   1.966       .  S
Zn638       O643   2.052       .  S
Zn638       O646   2.016       .  S
Zn638       O649   2.006       .  S
Zn639       O640   1.975       .  S
Zn639       O647   2.025       .  S
Zn639       O650   2.029   1_655  S
Zn639       O651   2.052       .  S
O641        C653   1.271       .  A
O642        C654   1.272       .  A
O643        C655   1.275   1_556  A
O644        C653   1.272   1_556  A
O645        C655   1.268       .  A
O646        C654   1.274       .  A
O647        C656   1.275       .  A
O648        C657   1.272   1_655  A
O649        C656   1.273       .  A
O650        C657   1.276       .  A
O651        C658   1.277   1_556  A
O652        C658   1.269       .  A
C653        C819   1.464       .  S
C654        C719   1.484       .  S
C655        C809   1.469       .  S
C656       C1017   1.491       .  S
C659        N660   1.372       .  A
C659        N664   1.373       .  A
C659        C759   1.497       .  S
N660        C661   1.360       .  A
C661        N662   1.332       .  A
N662        C663   1.332       .  A
C663        N664   1.360       .  A
C663        C676   1.496       .  S
C665        N666   1.367       .  A
C665        N670   1.366       .  A
C665        C736   1.500       .  S
N666        C667   1.361       .  A
C667        N668   1.354       .  A
C667        C679   1.514       .  S
N668        C669   1.353       .  A
C669        N670   1.360       .  A
C671        H672   1.113       .  S
C671        C677   1.537       .  S
C671        C676   1.534       .  S
C671        C675   1.530   1_545  S
C673        H674   1.113       .  S
C673        C679   1.531       .  S
C673        C678   1.539   1_545  S
C673        C680   1.530       .  S
C675        C971   1.515       .  S
C675        C678   1.414       .  D
C676        C679   1.402       .  D
C677        C699   1.508       .  S
C677        C680   1.408       .  D
C678        C991   1.507       .  S
C680        C705   1.508       .  S
C681        H682   1.114       .  S
C681        C687   1.543       .  S
C681        C686   1.534       .  S
C681        C685   1.538       .  S
C683        H684   1.114       .  S
C683        C689   1.536       .  S
C683        C688   1.528       .  S
C683        C690   1.526       .  S
C685        C688   1.399       .  D
C686        C711   1.509       .  S
C686        C689   1.408       .  D
C687        C707   1.502       .  S
C687        C690   1.405       .  D
C689        C695   1.508       .  S
C690        C701   1.503       .  S
C691        N692   1.370       .  A
C691        N696   1.371       .  A
C691        C769   1.484       .  S
N692        C693   1.359       .  A
C693        N694   1.338       .  A
C693        C953   1.509       .  S
N694        C695   1.337       .  A
C695        N696   1.358       .  A
C697        N698   1.372       .  A
C697        N702   1.364       .  A
C697        C749   1.482       .  S
N698        C699   1.365       .  A
C699        N700   1.341       .  A
N700        C701   1.339       .  A
C701        N702   1.352       .  A
C703        N704   1.370       .  A
C703        N708   1.368       .  A
C703        C716   1.487       .  S
N704        C705   1.359       .  A
C705        N706   1.339       .  A
N706        C707   1.338       .  A
C707        N708   1.356       .  A
C709        N710   1.371       .  A
C709        N714   1.369       .  A
C709        C726   1.489       .  S
N710        C711   1.357       .  A
C711        N712   1.337       .  A
N712        C713   1.337       .  A
C713        N714   1.357       .  A
C713        C956   1.505       .  S
C715        C716   1.411       .  A
C715        C720   1.396       .  A
C715        F722   1.358       .  S
C716        C717   1.411       .  A
C717        C718   1.398       .  A
C717        F724   1.358       .  S
C718        C719   1.410       .  A
C718        F723   1.358       .  S
C719        C720   1.409       .  A
C720        F721   1.358       .  S
C725        C726   1.413       .  A
C725        C730   1.399       .  A
C725        F732   1.358       .  S
C726        C727   1.409       .  A
C727        C728   1.394       .  A
C727        F734   1.357       .  S
C728        C729   1.411       .  A
C728        F733   1.359       .  S
C729        C730   1.409       .  A
C730        F731   1.358       .  S
C735        C736   1.414       .  A
C735        C740   1.403       .  A
C735        F742   1.358       .  S
C736        C737   1.412       .  A
C737        C738   1.400       .  A
C737        F744   1.358       .  S
C738        C739   1.411       .  A
C738        F743   1.358   1_545  S
C739        C934   1.495   1_545  S
C739        C740   1.411       .  A
C740       F1019   1.358       .  S
F741       C1018   1.358       .  S
C745        C746   1.405       .  A
C745        C750   1.405       .  A
C745        F752   1.357       .  S
C746        C747   1.405       .  A
C747        C748   1.393       .  A
C747        F754   1.359       .  S
C748        C749   1.409       .  A
C748        F753   1.359       .  S
C749        C750   1.409       .  A
C750        F751   1.356       .  S
C755        C756   1.402       .  A
C755        C760   1.401       .  A
C755        F762   1.358       .  S
C756        C910   1.471       .  S
C756        C757   1.403       .  A
C757        C758   1.400       .  A
C757       F1042   1.358       .  S
C758        C759   1.414       .  A
C758        F763   1.357       .  S
C759        C760   1.414       .  A
C760        F761   1.356       .  S
F764       C1035   1.358       .  S
C765        C766   1.401       .  A
C765        C770   1.401       .  A
C766        C767   1.404       .  A
C767        C768   1.395       .  A
C767        F774   1.359       .  S
C768        C769   1.408       .  A
C768        F773   1.357       .  S
C769        C770   1.413       .  A
C770        F771   1.357       .  S
C775        C776   1.411       .  A
C775        C780   1.400       .  A
C775        F782   1.356       .  S
C776        C777   1.413       .  A
C777        F784   1.358       .  S
C778       F1061   1.358   1_455  S
C779        C780   1.410       .  A
C780        F781   1.358       .  S
F783       C1056   1.358   1_655  S
C785        C786   1.412       .  A
C785        C790   1.397       .  A
C785        F792   1.357       .  S
C786        C787   1.408       .  A
C787        C788   1.398       .  A
C787        F794   1.357       .  S
C788        C789   1.410       .  A
C788        F793   1.358       .  S
C789        C790   1.406       .  A
C790        F791   1.358       .  S
C795        C796   1.409       .  A
C795        C800   1.397       .  A
C795        F802   1.358       .  S
C796        C797   1.413       .  A
C797        C798   1.404       .  A
C797        F804   1.358       .  S
C798        C799   1.410       .  A
C798        F803   1.357       .  S
C799        C800   1.414       .  A
C800        F801   1.358       .  S
C805        C806   1.408       .  A
C805        C810   1.396       .  A
C805        F812   1.357       .  S
C806        C807   1.415       .  A
C807        C808   1.403       .  A
C807        F814   1.357       .  S
C808        C809   1.401       .  A
C808        F813   1.358       .  S
C809        C810   1.403       .  A
C810        F811   1.357       .  S
C815        C816   1.412       .  A
C815        C820   1.397       .  A
C815        F822   1.355       .  S
C816        C817   1.415       .  A
C817        C818   1.398       .  A
C817        F824   1.357       .  S
C818        C819   1.399       .  A
C818        F823   1.358       .  S
C819        C820   1.400       .  A
C820        F821   1.358       .  S
C825        C826   1.403       .  A
C825        C830   1.396       .  A
C825        F832   1.358       .  S
C826        C827   1.399       .  A
C827        C828   1.400       .  A
C828        C829   1.414       .  A
C828        F833   1.356       .  S
C829        C830   1.408       .  A
C830        F831   1.356       .  S
C835        N836   1.364       .  A
C835        N840   1.367       .  A
C835       C1107   1.487       .  S
N836        C837   1.358       .  A
C837        N838   1.352       .  A
C837        C850   1.508       .  S
N838        C839   1.353       .  A
C839        N840   1.360       .  A
C839        C857   1.510       .  S
C841        H842   1.113       .  S
C841        C847   1.533       .  S
C841        C846   1.525       .  S
C841        C845   1.537       .  S
C843        H844   1.113       .  S
C843        C849   1.541       .  S
C843        C848   1.529       .  S
C843        C850   1.529       .  S
C845        C877   1.514       .  S
C845        C848   1.405       .  D
C846        C849   1.408       .  D
C847        C889   1.495       .  S
C847        C850   1.404       .  D
C848        C863   1.498       .  S
C851        H852   1.113       .  S
C851        C857   1.534       .  S
C851        C856   1.537       .  S
C851        C855   1.521       .  S
C853        H854   1.113       .  S
C853        C859   1.528       .  S
C853        C858   1.545       .  S
C853        C860   1.530       .  S
C855        C869   1.508       .  S
C855        C858   1.407       .  D
C856        C859   1.398       .  D
C857        C860   1.403       .  D
C858        C883   1.500       .  S
C860        C887   1.498       .  S
C861        N862   1.373       .  A
C861        N866   1.367       .  A
C861       C1094   1.494       .  S
N862        C863   1.364       .  A
C863        N864   1.336       .  A
N864        C865   1.335       .  A
C865        N866   1.355       .  A
C867        N868   1.366       .  A
C867        N872   1.373       .  A
C867       C1084   1.489       .  S
N868        C869   1.356       .  A
C869        N870   1.342       .  A
N870        C871   1.344       .  A
C871        N872   1.364       .  A
C873        N874   1.363       .  A
C873        N878   1.371       .  A
C873       C1077   1.498       .  S
N874        C875   1.355       .  A
C875        N876   1.352       .  A
N876        C877   1.353       .  A
C877        N878   1.366       .  A
C879        N880   1.371       .  A
C879        N884   1.373       .  A
C879       C1064   1.487       .  S
N880        C881   1.357       .  A
C881        N882   1.333       .  A
N882        C883   1.334       .  A
C883        N884   1.361       .  A
C885        N886   1.374       .  A
C885        N890   1.373       .  A
C885       C1054   1.496       .  S
N886        C887   1.359       .  A
C887        N888   1.329       .  A
N888        C889   1.329       .  A
C889        N890   1.360       .  A
Zn891       O895   1.907       .  S
Zn891       O896   1.962       .  S
Zn891       O900   1.970       .  S
Zn891       O907   1.951       .  S
Zn892       O895   1.970       .  S
Zn892       O897   2.015       .  S
Zn892       O899   2.048       .  S
Zn892       O903   2.013       .  S
Zn893       O895   1.963       .  S
Zn893       O898   2.068   1_565  S
Zn893       O901   2.018       .  S
Zn893       O904   2.014   1_565  S
Zn894       O895   1.975       .  S
Zn894       O902   2.038   1_655  S
Zn894       O905   2.039       .  S
Zn894       O906   2.079   1_655  S
O896        C908   1.267       .  A
O897        C909   1.274       .  A
O898        C910   1.276       .  A
O899        C908   1.276       .  A
O900        C910   1.266   1_565  A
O901        C909   1.276       .  A
O902        C911   1.278   1_465  A
O903        C912   1.273       .  A
O904        C911   1.275       .  A
O905        C912   1.277       .  A
O906        C913   1.278   1_455  A
O907        C913   1.266       .  A
C908       C1024   1.472       .  S
C909       C1067   1.484       .  S
C912       C1074   1.494       .  S
Zn914       O918   1.918   1_554  S
Zn914       O919   1.985       .  S
Zn914       O923   1.973       .  S
Zn914       O930   1.970       .  S
Zn915       O918   1.956       .  S
Zn915       O920   1.994       .  S
Zn915       O922   2.051       .  S
Zn915       O926   2.024       .  S
Zn916       O918   1.978       .  S
Zn916       O921   2.076       .  S
Zn916       O924   2.050       .  S
Zn916       O927   2.027       .  S
Zn917       O918   1.967       .  S
Zn917       O925   2.025       .  S
Zn917       O928   2.022   1_655  S
Zn917       O929   2.049   1_655  S
O919        C931   1.269       .  A
O920        C932   1.273       .  A
O921        C933   1.279   1_556  A
O922        C931   1.274   1_556  A
O923        C933   1.268       .  A
O924        C932   1.278       .  A
O925        C934   1.275       .  A
O926        C935   1.275   1_655  A
O927        C934   1.275       .  A
O928        C935   1.275       .  A
O929        C936   1.275   1_456  A
O930        C936   1.268       .  A
C931       C1097   1.469       .  S
C932        C997   1.494       .  S
C933       C1087   1.478       .  S
C937        N938   1.372       .  A
C937        N942   1.372       .  A
C937       C1037   1.495       .  S
N938        C939   1.359       .  A
C939        N940   1.335       .  A
N940        C941   1.334       .  A
C941        N942   1.359       .  A
C941        C954   1.499       .  S
C943        N944   1.366       .  A
C943        N948   1.364       .  A
C943       C1014   1.494       .  S
N944        C945   1.360       .  A
C945        N946   1.351       .  A
C945        C957   1.506       .  S
N946        C947   1.351       .  A
C947        N948   1.358       .  A
C949        H950   1.113       .  S
C949        C955   1.540       .  S
C949        C954   1.534       .  S
C949        C953   1.530       .  S
C951        H952   1.113       .  S
C951        C957   1.531       .  S
C951        C956   1.539       .  S
C951        C958   1.528       .  S
C953        C956   1.409       .  D
C954        C957   1.401       .  D
C955        C977   1.507       .  S
C955        C958   1.408       .  D
C958        C983   1.509       .  S
C959        H960   1.113       .  S
C959        C965   1.537       .  S
C959        C964   1.530       .  S
C959        C963   1.536       .  S
C961        H962   1.113       .  S
C961        C967   1.539       .  S
C961        C966   1.528       .  S
C961        C968   1.529       .  S
C963        C966   1.401       .  D
C964        C989   1.508       .  S
C964        C967   1.412       .  D
C965        C985   1.501       .  S
C965        C968   1.404       .  D
C967        C973   1.514       .  S
C968        C979   1.500       .  S
C969        N970   1.374       .  A
C969        N974   1.375       .  A
C969       C1047   1.497       .  S
N970        C971   1.362       .  A
C971        N972   1.334       .  A
N972        C973   1.335       .  A
C973        N974   1.362       .  A
C975        N976   1.371       .  A
C975        N980   1.361       .  A
C975       C1027   1.474       .  S
N976        C977   1.365       .  A
C977        N978   1.344       .  A
N978        C979   1.342       .  A
C979        N980   1.350       .  A
C981        N982   1.372       .  A
C981        N986   1.370       .  A
C981        C994   1.496       .  S
N982        C983   1.360       .  A
C983        N984   1.336       .  A
N984        C985   1.336       .  A
C985        N986   1.359       .  A
C987        N988   1.371       .  A
C987        N992   1.371       .  A
C987       C1004   1.493       .  S
N988        C989   1.359       .  A
C989        N990   1.335       .  A
N990        C991   1.335       .  A
C991        N992   1.359       .  A
C993        C994   1.415       .  A
C993        C998   1.404       .  A
C993       F1000   1.358       .  S
C994        C995   1.410       .  A
C995        C996   1.396       .  A
C995       F1002   1.358       .  S
C996        C997   1.412       .  A
C996       F1001   1.358       .  S
C997        C998   1.410       .  A
C998        F999   1.358       .  S
C1003      C1004   1.411       .  A
C1003      C1008   1.399       .  A
C1003      F1010   1.358       .  S
C1004      C1005   1.412       .  A
C1005      C1006   1.399       .  A
C1005      F1012   1.357       .  S
C1006      C1007   1.409       .  A
C1006      F1011   1.358       .  S
C1007      C1008   1.411       .  A
C1008      F1009   1.358       .  S
C1013      C1014   1.414       .  A
C1013      C1018   1.400       .  A
C1013      F1020   1.358       .  S
C1014      C1015   1.411       .  A
C1015      C1016   1.398       .  A
C1015      F1022   1.358       .  S
C1016      C1017   1.411       .  A
C1016      F1021   1.358       .  S
C1017      C1018   1.410       .  A
C1023      C1024   1.406       .  A
C1023      C1028   1.404       .  A
C1023      F1030   1.357       .  S
C1024      C1025   1.405       .  A
C1025      C1026   1.391       .  A
C1025      F1032   1.359       .  S
C1026      C1027   1.407       .  A
C1026      F1031   1.359       .  S
C1027      C1028   1.407       .  A
C1028      F1029   1.357       .  S
C1033      C1034   1.401       .  A
C1033      C1038   1.399       .  A
C1033      F1040   1.358       .  S
C1034      C1035   1.402       .  A
C1035      C1036   1.400       .  A
C1036      C1037   1.415       .  A
C1036      F1041   1.358       .  S
C1037      C1038   1.414       .  A
C1038      F1039   1.357       .  S
C1043      C1044   1.402       .  A
C1043      C1048   1.405       .  A
C1044      C1045   1.404       .  A
C1045      C1046   1.400       .  A
C1045      F1052   1.358       .  S
C1046      C1047   1.411       .  A
C1046      F1051   1.356       .  S
C1047      C1048   1.415       .  A
C1048      F1049   1.357       .  S
C1053      C1054   1.413       .  A
C1053      C1058   1.402       .  A
C1053      F1060   1.356       .  S
C1054      C1055   1.411       .  A
C1055      F1062   1.357       .  S
C1057      C1058   1.410       .  A
C1058      F1059   1.358       .  S
C1063      C1064   1.411       .  A
C1063      C1068   1.397       .  A
C1063      F1070   1.357       .  S
C1064      C1065   1.409       .  A
C1065      C1066   1.400       .  A
C1065      F1072   1.358       .  S
C1066      C1067   1.411       .  A
C1066      F1071   1.358       .  S
C1067      C1068   1.406       .  A
C1068      F1069   1.358       .  S
C1073      C1074   1.407       .  A
C1073      C1078   1.400       .  A
C1073      F1080   1.358       .  S
C1074      C1075   1.414       .  A
C1075      C1076   1.403       .  A
C1075      F1082   1.358       .  S
C1076      C1077   1.410       .  A
C1076      F1081   1.357       .  S
C1077      C1078   1.415       .  A
C1078      F1079   1.358       .  S
C1083      C1084   1.410       .  A
C1083      C1088   1.406       .  A
C1083      F1090   1.356       .  S
C1084      C1085   1.410       .  A
C1085      C1086   1.397       .  A
C1085      F1092   1.358       .  S
C1086      C1087   1.405       .  A
C1086      F1091   1.359       .  S
C1087      C1088   1.405       .  A
C1088      F1089   1.358       .  S
C1093      C1094   1.412       .  A
C1093      C1098   1.401       .  A
C1093      F1100   1.357       .  S
C1094      C1095   1.416       .  A
C1095      C1096   1.398       .  A
C1095      F1102   1.358       .  S
C1096      C1097   1.400       .  A
C1096      F1101   1.358       .  S
C1097      C1098   1.403       .  A
C1098      F1099   1.358       .  S
C1103      C1104   1.403       .  A
C1103      C1108   1.395       .  A
C1103      F1110   1.357       .  S
C1104      C1105   1.400       .  A
C1105      C1106   1.403       .  A
C1106      C1107   1.414       .  A
C1106      F1111   1.357       .  S
C1107      C1108   1.408       .  A
C1108      F1109   1.356       .  S
