geometry optimzed in LAMMPS
_audit_creation_date              2020-11-30 
_audit_creation_method            'lammps2cif' 
_symmetry_space_group_name_H-M    'P1' 
_symmetry_Int_Tables_number       1 
_symmetry_cell_setting            triclinic 
loop_ 
_symmetry_equiv_pos_as_xyz 
  x,y,z 
_cell_length_a                    34.87242352 
_cell_length_b                    35.17302640888235 
_cell_length_c                    38.55599171598538 
_cell_angle_alpha                 89.69223444502097 
_cell_angle_beta                  90.61317869396754 
_cell_angle_gamma                 120.6839141068373 
loop_ 
_atom_site_label 
_atom_site_type_symbol 
_atom_site_fract_x 
_atom_site_fract_y 
_atom_site_fract_z 
_atom_site_charge 
N1          N  0.74722574  0.14248057  0.52317068    -0.03200
C2          C  0.71017475  0.12054038  0.50269793    -0.00600
C3          C  0.67584738  0.12486202  0.51547842    -0.23500
C4          C  0.81499902  0.28539775  0.02211760    -0.23700
C5          C  0.83491609  0.26144926  0.03127357    -0.00700
H6          H  0.64298446  0.11186183  0.50410476     0.13100
H7          H  0.81542598  0.31176107  0.03681511     0.13100
N8          N  0.11016667  0.38241223  0.01725530    -0.03200
C9          C  0.24374757  0.40864561  0.44200096    -0.00600
C10         C  0.28753310  0.44310680  0.44269938    -0.23500
C11         C  0.13157991  0.45108054  0.03593455    -0.23700
C12         C  0.13415112  0.41360714  0.04188499    -0.00700
H13         H  0.30345814  0.47016757  0.42444079     0.13100
H14         H  0.14828195  0.48171996  0.05042698     0.13100
N15         N  0.36135964  0.25524774  0.51761823    -0.03200
C16         C  0.37643005  0.13388547  0.00282868    -0.00600
C17         C  0.41560601  0.14176619  0.98788425    -0.23500
C18         C  0.42957755  0.31346082  0.50654428    -0.23700
C19         C  0.38699308  0.28621045  0.49359771    -0.00700
H20         H  0.43871614  0.13254696  0.99821787     0.13100
H21         H  0.45724160  0.34060548  0.49319635     0.13100
N22         N  0.20292910  0.85937589  0.00639830    -0.03200
C23         C  0.20988297  0.83620711  0.03156451    -0.00600
C24         C  0.24077460  0.82525843  0.02101183    -0.23500
C25         C  0.14043309  0.73919609  0.45377395    -0.23700
C26         C  0.13985521  0.77808560  0.45104414    -0.00700
H27         H  0.25178933  0.80583766  0.03519134     0.13100
H28         H  0.15512369  0.72676587  0.43582479     0.13100
N29         N  0.85440538  0.64850162  0.51365033    -0.03200
C30         C  0.87053394  0.62976453  0.49189017    -0.00600
C31         C  0.86061237  0.58870930  0.50385390    -0.23500
C32         C  0.68588117  0.57797058  0.99328561    -0.23700
C33         C  0.71438362  0.61962829  0.00643225    -0.00700
H34         H  0.86812723  0.56583724  0.49130507     0.13100
H35         H  0.65602853  0.55193844  0.00535864     0.13100
N36         N  0.60936508  0.78054870  0.01503732    -0.03200
C37         C  0.57890552  0.77351104  0.03986444    -0.00600
C38         C  0.53863544  0.73564720  0.03247598    -0.23500
C39         C  0.54546859  0.86033508  0.46732439    -0.23700
C40         C  0.58406956  0.85888847  0.46335778    -0.00700
H41         H  0.50805334  0.72238253  0.04702696     0.13100
H42         H  0.51663382  0.84612606  0.45023727     0.13100
C43         C  0.96052770  0.03764978  0.00627560     0.02600
C44         C  0.00793603  0.06187265  0.00713667     0.02600
C45         C  0.03198530  0.03930286  0.00621139     0.02600
C46         C  0.00857679  0.99222096  0.00574160     0.02600
C47         C  0.96121046  0.96811351  0.00491570     0.02600
C48         C  0.93729753  0.99085727  0.00631170     0.02600
In49       In  0.04021053  0.54157847  0.25497484     1.36900
C50         C  0.07542325  0.60705635  0.20946391     0.77800
O51         O  0.03915697  0.49798700  0.21322259    -0.60600
O52         O  0.97768944  0.47895484  0.23782378    -0.51500
C53         C  0.07900542  0.50928359  0.29487194     0.70500
O54         O  0.09825957  0.53433294  0.26939153    -0.46400
C55         C  0.00881552  0.57837065  0.29735298     0.75200
O56         O  0.09843545  0.60295968  0.23311957    -0.58200
O57         O  0.98417646  0.54666700  0.27723893    -0.48300
O58         O  0.03485479  0.57712949  0.20891062    -0.54700
C59         C  0.99809457  0.47013809  0.21524015     0.85400
O60         O  0.04053830  0.50249441  0.30091225    -0.56600
O61         O  0.04975611  0.59102330  0.29594904    -0.59800
In62       In  0.45911775  0.96065925  0.25156807     1.36900
C63         C  0.49055964  0.92299275  0.21007449     0.77800
O64         O  0.41511969  0.95544051  0.20666192    -0.60600
O65         O  0.46105474  0.01961755  0.22575110    -0.51500
C66         C  0.38699162  0.93032832  0.29046432     0.70500
O67         O  0.39272252  0.90594789  0.26971055    -0.46400
C68         C  0.52491619  0.99065768  0.29921097     0.75200
O69         O  0.45987759  0.90091916  0.23165035    -0.58200
O70         O  0.52147128  0.01565710  0.27717127    -0.48300
O71         O  0.50478955  0.96394626  0.21003789    -0.54700
C72         C  0.43026512  0.99643000  0.20409756     0.85400
O73         O  0.41895322  0.96976535  0.29213151    -0.56600
O74         O  0.49445036  0.95058636  0.29693781    -0.59800
In75       In  0.45828466  0.54501700  0.25138157     1.36900
C76         C  0.38607810  0.51080894  0.20934177     0.77800
O77         O  0.50054371  0.58984950  0.20834253    -0.60600
O78         O  0.51653477  0.54317361  0.22779099    -0.51500
C79         C  0.49295571  0.61642907  0.29334939     0.70500
O80         O  0.46671657  0.61083433  0.26846032    -0.46400
C81         C  0.43031858  0.47669800  0.29532983     0.75200
O82         O  0.39258461  0.53772030  0.23348321    -0.58200
O83         O  0.46331908  0.48910708  0.27557143    -0.48300
O84         O  0.41657661  0.50179468  0.20672893    -0.54700
C85         C  0.52580498  0.57407486  0.20649979     0.85400
O86         O  0.50043219  0.58518540  0.29705535    -0.56600
O87         O  0.41160700  0.49925522  0.29247131    -0.59800
C88         C  0.75653926  0.85525714  0.07196642    -0.17600
C89         C  0.80254416  0.88517761  0.07081651    -0.19700
C90         C  0.82195826  0.91098540  0.04112650     0.20900
C91         C  0.79471719  0.90682453  0.01235762    -0.02700
C92         C  0.74827394  0.87637997  0.01343406    -0.05700
C93         C  0.72912434  0.85045013  0.04338625     0.21200
C94         C  0.73249796  0.92842902  0.46724152     0.19400
C95         C  0.76052839  0.95114814  0.43933832    -0.17200
C96         C  0.80624087  0.96673551  0.44155845    -0.19400
C97         C  0.82474604  0.95976101  0.47167558     0.20800
C98         C  0.87068809  0.97603350  0.47415678    -0.32400
C99         C  0.88770716  0.96485320  0.00918887     0.01500
C100        C  0.86820852  0.94011050  0.03938548    -0.23800
C101        C  0.68306750  0.81973181  0.04398790    -0.28300
C102        C  0.65603596  0.81402047  0.01485557     0.07200
C103        C  0.68669345  0.91311406  0.46517522    -0.27000
H104        H  0.74243690  0.83555012  0.09512717     0.11900
H105        H  0.82301982  0.88789629  0.09308756     0.13100
H106        H  0.74710809  0.95705519  0.41580264     0.12100
H107        H  0.82718948  0.98443986  0.41972051     0.11400
H108        H  0.89214570  0.99433824  0.45268466     0.16800
H109        H  0.88940762  0.94268110  0.06111970     0.12700
H110        H  0.66827122  0.79929626  0.06672066     0.15500
H111        H  0.67284655  0.91908013  0.44189561     0.15300
C112        C  0.57619030  0.93118105  0.10588409    -0.17600
C113        C  0.59153264  0.91142921  0.08266051    -0.19700
C114        C  0.58306473  0.86836960  0.08857208     0.20900
C115        C  0.55976810  0.84555783  0.11873391    -0.02700
C116        C  0.54347953  0.86510931  0.14175159    -0.05700
C117        C  0.55162055  0.90807990  0.13522116     0.21200
C118        C  0.51807359  0.84116814  0.17080430     0.19400
C119        C  0.51036718  0.79854481  0.17718182    -0.17200
C120        C  0.52693517  0.77942967  0.15466760    -0.19400
C121        C  0.55104396  0.80239445  0.12518451     0.20800
C122        C  0.56388726  0.78168826  0.10091210    -0.32400
C123        C  0.58338967  0.80244078  0.06936598     0.01500
C124        C  0.59480976  0.84659034  0.06392563    -0.23800
C125        C  0.53454204  0.92687422  0.15789110    -0.28300
C126        C  0.50864546  0.90292095  0.18659090     0.07200
C127        C  0.50047008  0.86004374  0.19280793    -0.27000
H128        H  0.58281639  0.96428388  0.10051522     0.11900
H129        H  0.60934838  0.92954115  0.05976246     0.13100
H130        H  0.49111250  0.77978813  0.19938966     0.12100
H131        H  0.51984408  0.74614282  0.15982857     0.11400
H132        H  0.55492672  0.74761189  0.10506660     0.16800
H133        H  0.60917703  0.86248956  0.03942003     0.12700
H134        H  0.54080935  0.95992925  0.15287147     0.15500
H135        H  0.48073570  0.84152348  0.21494347     0.15300
C136        C  0.58820988  0.72721318  0.42530526    -0.17600
C137        C  0.57300653  0.69195926  0.40183257    -0.19700
C138        C  0.55306402  0.69259504  0.37013664     0.20900
C139        C  0.54990318  0.72991461  0.36147075    -0.02700
C140        C  0.56574396  0.76577195  0.38501313    -0.05700
C141        C  0.58412568  0.76404589  0.41744848     0.21200
C142        C  0.56123262  0.80239065  0.37673546     0.19400
C143        C  0.54250088  0.80367598  0.34464400    -0.17200
C144        C  0.52678495  0.76822600  0.32141501    -0.19400
C145        C  0.52953158  0.73079003  0.32982825     0.20800
C146        C  0.51130640  0.69385992  0.30756964    -0.32400
C147        C  0.51342406  0.65605671  0.31635059     0.01500
C148        C  0.53521664  0.65615852  0.34740529    -0.23800
C149        C  0.59547460  0.79777591  0.44216166    -0.28300
C150        C  0.58812452  0.83281224  0.43482117     0.07200
C151        C  0.57292460  0.83576845  0.40148034    -0.27000
H152        H  0.60226394  0.72520830  0.44994740     0.11900
H153        H  0.57591576  0.66364569  0.40886845     0.13100
H154        H  0.53888363  0.83165496  0.33787379     0.12100
H155        H  0.51162411  0.76970295  0.29717288     0.11400
H156        H  0.49515452  0.69439637  0.28355421     0.16800
H157        H  0.53729953  0.62734760  0.35434542     0.12700
H158        H  0.60634164  0.79479549  0.46794916     0.15500
H159        H  0.56692766  0.86253844  0.39575371     0.15300
C160        C  0.89260507  0.81680281  0.05422400    -0.17600
C161        C  0.86171348  0.77136104  0.05167149    -0.19700
C162        C  0.83746860  0.75319445  0.02081801     0.20900
C163        C  0.84442934  0.78123298  0.99226395    -0.02700
C164        C  0.87548335  0.82714403  0.99488891    -0.05700
C165        C  0.89978831  0.84503611  0.02601754     0.21200
C166        C  0.89635711  0.84831554  0.48312462     0.19400
C167        C  0.87405758  0.82134310  0.45437026    -0.17200
C168        C  0.85995806  0.77617049  0.45485721    -0.19400
C169        C  0.86796302  0.75708688  0.48407426     0.20800
C170        C  0.85614036  0.71230219  0.48417313    -0.32400
C171        C  0.86464079  0.69376448  0.51355960     0.01500
C172        C  0.80628762  0.70761096  0.01802584    -0.23800
C173        C  0.92993831  0.89089899  0.02862676    -0.28300
C174        C  0.93555780  0.91900923  0.00062657     0.07200
C175        C  0.91361055  0.89431546  0.48201845    -0.27000
H176        H  0.91071587  0.82991441  0.07837759     0.11900
H177        H  0.85673785  0.75040260  0.07389561     0.13100
H178        H  0.86824203  0.83535380  0.43123045     0.12100
H179        H  0.84346797  0.75630615  0.43210777     0.11400
H180        H  0.84046670  0.69185559  0.46152187     0.16800
H181        H  0.80082593  0.68597946  0.03987538     0.12700
H182        H  0.94764136  0.90501985  0.05277933     0.15500
H183        H  0.91044850  0.90962008  0.45853427     0.15300
C184        C  0.60336406  0.66276609  0.10270469    -0.17600
C185        C  0.63218407  0.67152599  0.07479166    -0.19700
C186        C  0.65830503  0.65164156  0.07309733     0.20900
C187        C  0.65694300  0.62448062  0.10080198    -0.02700
C188        C  0.62730039  0.61506664  0.12869665    -0.05700
C189        C  0.59973641  0.63360704  0.12925799     0.21200
C190        C  0.62366206  0.58536070  0.15506043     0.19400
C191        C  0.65138120  0.56725112  0.15430781    -0.17200
C192        C  0.68086674  0.57675778  0.12684727    -0.19400
C193        C  0.68301923  0.60434591  0.09955417     0.20800
C194        C  0.70796157  0.60918349  0.06981145    -0.32400
C195        C  0.70622251  0.63267272  0.04080788     0.01500
C196        C  0.68300092  0.65556408  0.04314908    -0.23800
C197        C  0.56784430  0.62128947  0.15554780    -0.28300
C198        C  0.56249924  0.59002471  0.18095659     0.07200
C199        C  0.59126936  0.57297910  0.18094548    -0.27000
H200        H  0.58276605  0.67768042  0.10289091     0.11900
H201        H  0.63301010  0.69278062  0.05403688     0.13100
H202        H  0.64935520  0.54473030  0.17444621     0.12100
H203        H  0.70081437  0.56115406  0.12631038     0.11400
H204        H  0.72506815  0.59077766  0.06773496     0.16800
H205        H  0.68076014  0.67285967  0.02058686     0.12700
H206        H  0.54605966  0.63487189  0.15546663     0.15500
H207        H  0.58771498  0.54922833  0.20056470     0.15300
C208        C  0.02551653  0.67315111  0.39805453    -0.17600
C209        C  0.00567654  0.68314324  0.42522474    -0.19700
C210        C  0.95913324  0.66401045  0.42633657     0.20900
C211        C  0.93262666  0.63641020  0.39882545    -0.02700
C212        C  0.95257013  0.62601526  0.37164185    -0.05700
C213        C  0.99914539  0.64367155  0.37163060     0.21200
C214        C  0.92552380  0.59591277  0.34556881     0.19400
C215        C  0.87922840  0.57787991  0.34601845    -0.17200
C216        C  0.85950977  0.58806514  0.37291704    -0.19400
C217        C  0.88579684  0.61655667  0.39972980     0.20800
C218        C  0.86572658  0.62224104  0.42890531    -0.32400
C219        C  0.89151958  0.64568761  0.45786747     0.01500
C220        C  0.93826140  0.66863385  0.45575743    -0.23800
C221        C  0.01802945  0.62974325  0.34620029    -0.28300
C222        C  0.99068458  0.59796569  0.32124719     0.07200
C223        C  0.94479884  0.58248738  0.32045690    -0.27000
H224        H  0.06133378  0.68723852  0.39839469     0.11900
H225        H  0.02660414  0.70458335  0.44597628     0.13100
H226        H  0.85809728  0.55472873  0.32617258     0.12100
H227        H  0.82350630  0.57236239  0.37341241     0.11400
H228        H  0.82966499  0.60361246  0.43097667     0.16800
H229        H  0.95797602  0.68588661  0.47840600     0.12700
H230        H  0.05357899  0.64211600  0.34676442     0.15500
H231        H  0.92364641  0.55843518  0.30109465     0.15300
C232        C  0.07659903  0.91042087  0.55778026    -0.17600
C233        C  0.09158467  0.88052072  0.55388364    -0.19700
C234        C  0.09360360  0.86493565  0.52087965     0.20900
C235        C  0.11559502  0.91120246  0.00786101    -0.02700
C236        C  0.08773526  0.92964187  0.00778884    -0.05700
C237        C  0.06354037  0.92549911  0.52873817     0.21200
C238        C  0.06136944  0.92515190  0.97827336     0.19400
C239        C  0.06270820  0.90181785  0.94933758    -0.17200
C240        C  0.09035378  0.88368853  0.94937234    -0.19400
C241        C  0.11719209  0.88849181  0.97835999     0.20800
C242        C  0.14586369  0.87135477  0.97821122    -0.32400
C243        C  0.17283720  0.87628105  0.00722900     0.01500
C244        C  0.10806873  0.83445786  0.51674221    -0.23800
C245        C  0.04774548  0.95494673  0.53242429    -0.28300
C246        C  0.03413287  0.96860168  0.00686402     0.07200
C247        C  0.03473285  0.94464625  0.97800629    -0.27000
H248        H  0.07501287  0.92159040  0.58356636     0.11900
H249        H  0.10129531  0.86931768  0.57675786     0.13100
H250        H  0.04262639  0.89789974  0.92650755     0.12100
H251        H  0.09099527  0.86617016  0.92657145     0.11400
H252        H  0.14712942  0.85393227  0.95557371     0.16800
H253        H  0.11907020  0.82394333  0.53923860     0.12700
H254        H  0.04532456  0.96623977  0.55796144     0.15500
H255        H  0.01520764  0.94208635  0.95512941     0.15300
C256        C  0.21403723  0.78895664  0.14868695    -0.17600
C257        C  0.19673599  0.75379106  0.17221261    -0.19700
C258        C  0.15382574  0.71709009  0.16722249     0.20900
C259        C  0.12751541  0.71642154  0.13884522    -0.02700
C260        C  0.14492409  0.75195176  0.11514317    -0.05700
C261        C  0.18870295  0.78792397  0.11978063     0.21200
C262        C  0.11945529  0.75033848  0.08581079     0.19400
C263        C  0.07613604  0.71409490  0.08132043    -0.17200
C264        C  0.05869215  0.67908296  0.10502381    -0.19400
C265        C  0.08435487  0.67965711  0.13353188     0.20800
C266        C  0.06779063  0.64391035  0.15659971    -0.32400
C267        C  0.09390727  0.64427359  0.18478147     0.01500
C268        C  0.13692383  0.68089118  0.18990225    -0.23800
C269        C  0.20763863  0.82038723  0.09401248    -0.28300
C270        C  0.18391562  0.81664331  0.06327971     0.07200
C271        C  0.13904082  0.78313856  0.06015741    -0.27000
H272        H  0.24771728  0.81637808  0.15255448     0.11900
H273        H  0.21723981  0.75494857  0.19397445     0.13100
H274        H  0.05615212  0.71228147  0.05897391     0.12100
H275        H  0.02543018  0.65113722  0.10067958     0.11400
H276        H  0.03459074  0.61569262  0.15252327     0.16800
H277        H  0.15708388  0.68138925  0.21170003     0.12700
H278        H  0.24251479  0.84598915  0.09607093     0.15500
H279        H  0.12112349  0.77978498  0.03613654     0.15300
C280        C  0.22902290  0.81987606  0.31047081    -0.17600
C281        C  0.19242952  0.79987502  0.33259152    -0.19700
C282        C  0.19453585  0.81808339  0.36532757     0.20900
C283        C  0.23277782  0.85825995  0.37514457    -0.02700
C284        C  0.26964122  0.87863668  0.35268710    -0.05700
C285        C  0.26817589  0.85851331  0.32070954     0.21200
C286        C  0.30880329  0.91770080  0.36307006     0.19400
C287        C  0.31005289  0.93691978  0.39521252    -0.17200
C288        C  0.27375729  0.91629994  0.41774301    -0.19400
C289        C  0.23539550  0.87636942  0.40832812     0.20800
C290        C  0.20126091  0.85239293  0.43238774    -0.32400
C291        C  0.16520156  0.81049800  0.42356416     0.01500
C292        C  0.16070818  0.79489833  0.38944874    -0.23800
C293        C  0.30646748  0.87621402  0.30022508    -0.28300
C294        C  0.34608111  0.91404269  0.31105486     0.07200
C295        C  0.34660638  0.93560049  0.34184824    -0.27000
H296        H  0.22722761  0.80432648  0.28585329     0.11900
H297        H  0.16315330  0.76910683  0.32468072     0.13100
H298        H  0.33976946  0.96706267  0.40349814     0.12100
H299        H  0.27629308  0.93079140  0.44299614     0.11400
H300        H  0.20494799  0.86416514  0.45883554     0.16800
H301        H  0.13283485  0.76250560  0.38276726     0.12700
H302        H  0.30572141  0.86007591  0.27614585     0.15500
H303        H  0.37705422  0.96507587  0.35009250     0.15300
C304        C  0.23110353  0.13455150  0.05347672    -0.17600
C305        C  0.18541698  0.11928114  0.05667272    -0.19700
C306        C  0.15656419  0.10190289  0.02786879     0.20900
C307        C  0.17436762  0.10131502  0.99526859    -0.02700
C308        C  0.22235483  0.15888566  0.51418410    -0.05700
C309        C  0.24894199  0.13292074  0.02137426     0.21200
C310        C  0.24928739  0.16420317  0.48533571     0.19400
C311        C  0.22988450  0.13715244  0.45609238    -0.17200
C312        C  0.18423458  0.10545637  0.45526093    -0.19400
C313        C  0.15706601  0.10011446  0.48367338     0.20800
C314        C  0.11084257  0.06968749  0.48246980    -0.32400
C315        C  0.08152201  0.06442504  0.00241406     0.01500
C316        C  0.11015436  0.08376185  0.03119643    -0.23800
C317        C  0.29428213  0.14572379  0.01823823    -0.28300
C318        C  0.31422234  0.22303445  0.51584048     0.07200
C319        C  0.29506181  0.19637489  0.48629443    -0.27000
H320        H  0.25237076  0.14694700  0.07628614     0.11900
H321        H  0.17249069  0.12024230  0.08187934     0.13100
H322        H  0.24999453  0.14067823  0.43373099     0.12100
H323        H  0.17009296  0.08534590  0.43223062     0.11400
H324        H  0.09560428  0.05065664  0.45912688     0.16800
H325        H  0.09606079  0.08290986  0.05631498     0.12700
H326        H  0.31600150  0.15730603  0.04082108     0.15500
H327        H  0.31595192  0.20016523  0.46441231     0.15300
C328        C  0.32969661  0.99945694  0.07060864    -0.17600
C329        C  0.34007654  0.98024137  0.09841301    -0.19700
C330        C  0.36884156  0.00662612  0.12527032     0.20900
C331        C  0.38533443  0.05254603  0.12497752    -0.02700
C332        C  0.37439792  0.07188507  0.09711880    -0.05700
C333        C  0.34759643  0.04542890  0.06924455     0.21200
C334        C  0.39269207  0.11809296  0.09611176     0.19400
C335        C  0.41992311  0.14422997  0.12363700    -0.17200
C336        C  0.43069263  0.12513126  0.15115017    -0.19400
C337        C  0.41447762  0.07951652  0.15166312     0.20800
C338        C  0.42820910  0.06080240  0.17773895    -0.32400
C339        C  0.41329361  0.01537621  0.17763004     0.01500
C340        C  0.38267823  0.98829322  0.15171847    -0.23800
C341        C  0.34217371  0.06578333  0.03943746    -0.28300
C342        C  0.36319916  0.11216553  0.03727182     0.07200
C343        C  0.38645219  0.13776626  0.06642294    -0.27000
H344        H  0.30877335  0.97850405  0.04964139     0.11900
H345        H  0.32667047  0.94482380  0.09833889     0.13100
H346        H  0.43417803  0.17975425  0.12331820     0.12100
H347        H  0.45277202  0.14626596  0.17154121     0.11400
H348        H  0.45127927  0.08181035  0.19774042     0.16800
H349        H  0.37062821  0.95312260  0.15152306     0.12700
H350        H  0.32531129  0.04598210  0.01673490     0.15500
H351        H  0.40382446  0.17352458  0.06447922     0.15300
C352        C  0.44070973  0.32990757  0.37702736    -0.17600
C353        C  0.44992991  0.36024920  0.35022638    -0.19700
C354        C  0.42641466  0.38274293  0.34746337     0.20900
C355        C  0.39196278  0.37317611  0.37112219    -0.02700
C356        C  0.38279891  0.34266237  0.39836870    -0.05700
C357        C  0.40802424  0.32174966  0.40166292     0.21200
C358        C  0.35056148  0.33536795  0.42359024     0.19400
C359        C  0.32570862  0.35643698  0.41986952    -0.17200
C360        C  0.33430125  0.38612997  0.39252936    -0.19400
C361        C  0.36820742  0.39569148  0.36860768     0.20800
C362        C  0.37988696  0.42847429  0.34304716    -0.32400
C363        C  0.41542537  0.43944482  0.32025049     0.01500
C364        C  0.43785978  0.41571629  0.32224230    -0.23800
C365        C  0.40297402  0.29620328  0.43112836    -0.28300
C366        C  0.37469908  0.29291300  0.45818466     0.07200
C367        C  0.34655550  0.31025184  0.45343532    -0.27000
H368        H  0.46038623  0.31409664  0.37926871     0.11900
H369        H  0.47630798  0.36701515  0.33220862     0.13100
H370        H  0.30058459  0.35104550  0.43872926     0.12100
H371        H  0.31535669  0.40269049  0.39071254     0.11400
H372        H  0.36222068  0.44638706  0.34161636     0.16800
H373        H  0.46505621  0.42368986  0.30470846     0.12700
H374        H  0.42494895  0.28311032  0.43495852     0.15500
H375        H  0.32514923  0.30819020  0.47441642     0.15300
C376        C  0.03370938  0.19283932  0.07274420    -0.17600
C377        C  0.04704713  0.23770308  0.07390375    -0.19700
C378        C  0.06783177  0.26522772  0.04527097     0.20900
C379        C  0.07557022  0.24739779  0.01523388    -0.02700
C380        C  0.06231317  0.20210324  0.01413196    -0.05700
C381        C  0.04105599  0.17471902  0.04297273     0.21200
C382        C  0.08635049  0.17378287  0.46161746     0.19400
C383        C  0.10694085  0.18903354  0.42936197    -0.17200
C384        C  0.13839944  0.23380550  0.42443006    -0.19400
C385        C  0.15003548  0.26412481  0.45171802     0.20800
C386        C  0.18341447  0.30858573  0.44747685    -0.32400
C387        C  0.09987006  0.33717067  0.01678616     0.01500
C388        C  0.08039780  0.31006638  0.04592310    -0.23800
C389        C  0.02626327  0.12945476  0.04114034    -0.28300
C390        C  0.03157211  0.11092543  0.01065237     0.07200
C391        C  0.05669473  0.12856066  0.46726389    -0.27000
H392        H  0.01722999  0.17219604  0.09502957     0.11900
H393        H  0.04070812  0.25080348  0.09711736     0.13100
H394        H  0.09922337  0.16618854  0.40806691     0.12100
H395        H  0.15427173  0.24459257  0.39940611     0.11400
H396        H  0.20052398  0.31952353  0.42290702     0.16800
H397        H  0.07405427  0.32382329  0.06875291     0.12700
H398        H  0.00870966  0.10806039  0.06285454     0.15500
H399        H  0.04983776  0.10504272  0.44661729     0.15300
C400        C  0.19984989  0.46892369  0.15585895    -0.17600
C401        C  0.23684924  0.48600485  0.17814669    -0.19700
C402        C  0.27258145  0.47966336  0.17107496     0.20900
C403        C  0.27064236  0.45524857  0.14143340    -0.02700
C404        C  0.23338232  0.43839787  0.11861507    -0.05400
C405        C  0.19807134  0.44558528  0.12589451     0.21200
C406        C  0.23217377  0.41583262  0.08798185     0.19400
C407        C  0.26768359  0.40887518  0.08130995    -0.17200
C408        C  0.30420381  0.42481217  0.10428769    -0.19400
C409        C  0.30631895  0.44855388  0.13419198     0.20800
C410        C  0.34364122  0.46627095  0.15670168    -0.32400
C411        C  0.34616117  0.49133728  0.18603030     0.01500
C412        C  0.31033229  0.49773555  0.19296877    -0.23800
C413        C  0.16272925  0.43162163  0.10217445    -0.28300
C414        C  0.16275199  0.41233340  0.07030423     0.07200
C415        C  0.19677169  0.40292642  0.06383938    -0.27000
H416        H  0.17301251  0.47487841  0.16166645     0.11900
H417        H  0.23768427  0.50453769  0.20077570     0.13100
H418        H  0.26752594  0.39165410  0.05806265     0.12100
H419        H  0.33125743  0.41923842  0.09830425     0.11400
H420        H  0.37106442  0.46112222  0.15107955     0.16800
H421        H  0.31178032  0.51675322  0.21548822     0.12700
H422        H  0.13665678  0.43898214  0.10728117     0.15500
H423        H  0.19747887  0.38874882  0.03913877     0.15300
C424        C  0.19357378  0.46811429  0.30816549    -0.17600
C425        C  0.21536657  0.45159098  0.32828934    -0.19700
C426        C  0.20041198  0.43536456  0.36178145     0.20900
C427        C  0.16257400  0.43487439  0.37496352    -0.02700
C428        C  0.14067389  0.45173081  0.35470318    -0.05700
C429        C  0.15662162  0.46885458  0.32132686     0.21200
C430        C  0.10363364  0.45256936  0.36820033     0.19400
C431        C  0.08854173  0.43603572  0.40162258    -0.17200
C432        C  0.11045905  0.41958403  0.42182792    -0.19400
C433        C  0.14772209  0.41918480  0.40885704     0.20800
C434        C  0.17185007  0.40569745  0.42980869    -0.32400
C435        C  0.21096308  0.40854678  0.41737640     0.01500
C436        C  0.22404177  0.42182106  0.38297592    -0.23800
C437        C  0.13599889  0.48732919  0.30195833    -0.28300
C438        C  0.09961876  0.48892430  0.31544825     0.07200
C439        C  0.08303435  0.47080044  0.34829627    -0.27000
H440        H  0.20609304  0.48103058  0.28256844     0.11900
H441        H  0.24449812  0.45229736  0.31789225     0.13100
H442        H  0.06018317  0.43650693  0.41239462     0.12100
H443        H  0.09875321  0.40788957  0.44780199     0.11400
H444        H  0.16229774  0.39648026  0.45656315     0.16800
H445        H  0.25445323  0.42436619  0.37348788     0.12700
H446        H  0.14839908  0.50066401  0.27640239     0.15500
H447        H  0.05476798  0.47180778  0.35866911     0.15300
C448        C  0.87283863  0.09414784  0.06360923    -0.17600
C449        C  0.85544408  0.12230997  0.06392104    -0.19700
C450        C  0.85873704  0.14758931  0.03457880     0.20900
C451        C  0.87933405  0.14401612  0.00444319    -0.02700
C452        C  0.89713333  0.11572044  0.00419087    -0.05700
C453        C  0.89400773  0.09080608  0.03400405     0.21200
C454        C  0.90676786  0.10582506  0.48686610     0.19400
C455        C  0.90052637  0.12797137  0.45896297    -0.17200
C456        C  0.86945573  0.14189945  0.46109371    -0.19400
C457        C  0.84408977  0.13397396  0.49118839     0.20800
C458        C  0.81089016  0.14537375  0.49283722    -0.32400
C459        C  0.84529636  0.20172379  0.00545654     0.01500
C460        C  0.84206156  0.17653827  0.03493033    -0.23800
C461        C  0.91298942  0.06382749  0.03398572    -0.28300
C462        C  0.93560034  0.06189114  0.00472067     0.07200
C463        C  0.93563570  0.08908363  0.48417842    -0.27000
H464        H  0.87013070  0.07528954  0.08671181     0.11900
H465        H  0.83963354  0.12452009  0.08723275     0.13100
H466        H  0.91908232  0.13379383  0.43521618     0.12100
H467        H  0.86469478  0.15818798  0.43895226     0.11400
H468        H  0.80448115  0.16044729  0.47068707     0.16800
H469        H  0.82615670  0.17925354  0.05800235     0.12700
H470        H  0.91163429  0.04551613  0.05710076     0.15500
H471        H  0.95304626  0.09261570  0.46015565     0.15300
C472        C  0.84516591  0.29477436  0.15357886    -0.17600
C473        C  0.86734464  0.32708932  0.17913578    -0.19700
C474        C  0.91149820  0.36135073  0.17416510     0.20900
C475        C  0.93429717  0.36153495  0.14399756    -0.02700
C476        C  0.91189492  0.32899166  0.11817381    -0.05700
C477        C  0.86672515  0.29623290  0.12261593     0.21200
C478        C  0.93369598  0.33119346  0.08686242     0.19400
C479        C  0.97851437  0.36424339  0.08260295    -0.17200
C480        C  0.00089757  0.39606428  0.10840702    -0.19400
C481        C  0.97871388  0.39564046  0.13870048     0.20800
C482        C  0.99956314  0.42983587  0.16300349    -0.32400
C483        C  0.97635614  0.43123742  0.19211481     0.01500
C484        C  0.93264026  0.39638059  0.19802145    -0.23800
C485        C  0.84288690  0.26813409  0.09485516    -0.28300
C486        C  0.86330624  0.27307886  0.06258678     0.07200
C487        C  0.90925121  0.30284083  0.05929879    -0.27000
H488        H  0.81052143  0.26964730  0.15743762     0.11900
H489        H  0.84949487  0.32610313  0.20226224     0.13100
H490        H  0.99580173  0.36638650  0.05883121     0.12100
H491        H  0.03514266  0.42196947  0.10409425     0.11400
H492        H  0.03340274  0.45647892  0.15840951     0.16800
H493        H  0.91483968  0.39703123  0.22067750     0.12700
H494        H  0.80719616  0.24578691  0.09705233     0.15500
H495        H  0.92467399  0.30742190  0.03415780     0.15300
C496        C  0.58931966  0.96886425  0.40802858    -0.17600
C497        C  0.61865624  0.98695443  0.43639287    -0.19700
C498        C  0.65130124  0.03209621  0.43709335     0.20900
C499        C  0.65625088  0.05863954  0.40794139    -0.02700
C500        C  0.62633057  0.04050962  0.37945242    -0.05700
C501        C  0.59198030  0.99568455  0.37987116     0.21200
C502        C  0.62922169  0.06795009  0.35152115     0.19400
C503        C  0.66346095  0.11248451  0.35138129    -0.17200
C504        C  0.69297246  0.13040258  0.37956584    -0.19400
C505        C  0.68880457  0.10412090  0.40842017     0.20800
C506        C  0.71358863  0.12338831  0.43889010    -0.32400
C507        C  0.70515666  0.09810069  0.46920010     0.01500
C508        C  0.67607434  0.05216247  0.46740735    -0.23800
C509        C  0.55985976  0.97909639  0.35292331    -0.28300
C510        C  0.56122060  0.00695512  0.32585358     0.07200
C511        C  0.59676212  0.05101587  0.32497211    -0.27000
H512        H  0.56348149  0.93429430  0.40871150     0.11900
H513        H  0.61465506  0.96596733  0.45845583     0.13100
H514        H  0.66645197  0.13390285  0.32999610     0.12100
H515        H  0.71787954  0.16531695  0.37941827     0.11400
H516        H  0.73513451  0.15900632  0.44036086     0.16800
H517        H  0.66873114  0.03280290  0.49117057     0.12700
H518        H  0.53287161  0.94497141  0.35373339     0.15500
H519        H  0.59849003  0.07255323  0.30408019     0.15300
N520        N  0.82844680  0.23170047  0.00609628    -0.03200
C521        C  0.80393257  0.23731355  0.98106260    -0.00600
C522        C  0.79544408  0.27018497  0.99035100    -0.23500
C523        C  0.69178386  0.15017646  0.54474682    -0.23700
C524        C  0.73558371  0.16063680  0.54924199    -0.00700
H525        H  0.77608744  0.28114758  0.97585392     0.13100
H526        H  0.67362438  0.16108528  0.56038724     0.13100
N527        N  0.23444363  0.38303558  0.47085629    -0.03200
C528        C  0.09222657  0.40079529  0.99626784    -0.00600
C529        C  0.10515983  0.44295048  0.00724380    -0.23500
C530        C  0.30594543  0.43908879  0.47290461    -0.23700
C531        C  0.27297198  0.40232515  0.48970861    -0.00700
H532        H  0.09718917  0.46584955  0.99496468     0.13100
H533        H  0.33910028  0.46205301  0.48268021     0.13100
N534        N  0.35664265  0.15157026  0.98299611    -0.03200
C535        C  0.38878219  0.26308952  0.54550150    -0.00600
C536        C  0.43067125  0.29899430  0.53930836    -0.23500
C537        C  0.42055786  0.16479686  0.95794465    -0.23700
C538        C  0.38434318  0.17066015  0.95534383    -0.00700
H539        H  0.45980055  0.31147911  0.55597437     0.13100
H540        H  0.44863055  0.17753870  0.94055298     0.13100
N541        N  0.12041027  0.78409341  0.47933220    -0.03200
C542        C  0.10952641  0.74846271  0.49996404    -0.00600
C543        C  0.12137394  0.72056910  0.48474764    -0.23500
C544        C  0.25351323  0.84202481  0.98840258    -0.23700
C545        C  0.23014085  0.86282288  0.98000215    -0.00700
H546        H  0.11706250  0.69010116  0.49539908     0.13100
H547        H  0.27815832  0.84031309  0.97272674     0.13100
N548        N  0.74899598  0.64327018  0.98437583    -0.03200
C549        C  0.74177041  0.61556113  0.95716477    -0.00600
C550        C  0.70302529  0.57540007  0.96224728    -0.23500
C551        C  0.83770642  0.58155928  0.53398772    -0.23700
C552        C  0.83418427  0.61847384  0.53952940    -0.00700
H553        H  0.68950323  0.54655964  0.94567813     0.13100
H554        H  0.82335028  0.55168610  0.54942266     0.13100
N555        N  0.61215071  0.87855238  0.49100673    -0.03200
C556        C  0.59028436  0.89197307  0.51221951    -0.00600
C557        C  0.54939662  0.88111614  0.49812739    -0.23500
C558        C  0.54413441  0.71863543  0.00241406    -0.23700
C559        C  0.58754119  0.74649115  0.99220789    -0.00700
H560        H  0.52463192  0.88698415  0.50951890     0.13100
H561        H  0.51908658  0.68909914  0.98921128     0.13100
C562        C  0.96418537  0.04105564  0.50772377     0.02600
C563        C  0.01127100  0.06417593  0.50611053     0.02600
C564        C  0.03412333  0.04040730  0.50732268     0.02600
C565        C  0.00962979  0.99352808  0.50729858     0.02600
C566        C  0.96219666  0.97026103  0.50808722     0.02600
C567        C  0.93944044  0.99401832  0.50783573     0.02600
In568      In  0.92747637  0.49192734  0.74782558     1.36900
C569        C  0.96662283  0.55540840  0.69993351     0.77800
O570        O  0.92989680  0.44820060  0.70664219    -0.60600
O571        O  0.86740254  0.42780791  0.72970222    -0.51500
C572        C  0.95949257  0.46003305  0.79631028     0.70500
O573        O  0.98425569  0.48874006  0.77426948    -0.46400
C574        C  0.89408655  0.53182005  0.78589783     0.75200
O575        O  0.98866550  0.54831928  0.72273324    -0.58200
O576        O  0.87082925  0.50162464  0.76420131    -0.48300
O577        O  0.92497027  0.52994117  0.70180672    -0.54700
C578        C  0.88906935  0.41923921  0.70813894     0.85400
O579        O  0.91891036  0.44857381  0.79373184    -0.56600
O580        O  0.93414567  0.54128343  0.78803834    -0.59800
In581      In  0.50718857  0.06806647  0.75329167     1.36900
C582        C  0.53825968  0.03278633  0.70826117     0.77800
O583        O  0.46383347  0.06752743  0.70974738    -0.60600
O584        O  0.50194998  0.12760518  0.73732106    -0.51500
C585        C  0.43749694  0.02809382  0.79546479     0.70500
O586        O  0.44427530  0.00774639  0.77157385    -0.46400
C587        C  0.57605409  0.09954903  0.79783190     0.75200
O588        O  0.50768351  0.00992064  0.72964158    -0.58200
O589        O  0.57292949  0.12316761  0.77436623    -0.48300
O590        O  0.55269312  0.07373851  0.70985450    -0.54700
C591        C  0.47368142  0.10708396  0.71344795     0.85400
O592        O  0.46641984  0.06868542  0.79757435    -0.56600
O593        O  0.54366908  0.06035739  0.79867035    -0.59800
In594      In  0.51698441  0.49094445  0.74838155     1.36900
C595        C  0.45182013  0.46194498  0.70119698     0.77800
O596        O  0.55705362  0.53375245  0.70368190    -0.60600
O597        O  0.58071891  0.49640327  0.72970907    -0.51500
C598        C  0.54773975  0.55743071  0.79439538     0.70500
O599        O  0.51867717  0.55090913  0.77156718    -0.46400
C600        C  0.47983067  0.41885267  0.78896134     0.75200
O601        O  0.46044667  0.49354506  0.72152784    -0.58200
O602        O  0.50958956  0.42631359  0.76703120    -0.48300
O603        O  0.47561186  0.44486483  0.70600829    -0.54700
C604        C  0.58655355  0.52327252  0.70556616     0.85400
O605        O  0.56108068  0.53018785  0.79334479    -0.56600
O606        O  0.46957125  0.44842872  0.79024713    -0.59800
C607        C  0.74153198  0.89265620  0.55645624    -0.17600
C608        C  0.78738553  0.90793613  0.55856186    -0.19700
C609        C  0.81551866  0.93031255  0.53053030     0.20900
C610        C  0.79697780  0.93697712  0.49997259    -0.02700
C611        C  0.75070214  0.92140536  0.49779649    -0.05700
C612        C  0.72279528  0.89931220  0.52623348     0.21200
C613        C  0.72114501  0.87140995  0.98435117     0.19400
C614        C  0.74055010  0.89750861  0.95478465    -0.17200
C615        C  0.78650506  0.92777829  0.95377149    -0.19400
C616        C  0.81396003  0.93246973  0.98227578     0.20800
C617        C  0.86037503  0.96147945  0.98092744    -0.32400
C618        C  0.88970517  0.97053318  0.50467057     0.01500
C619        C  0.86188306  0.94703789  0.53267072    -0.23800
C620        C  0.67687281  0.88469975  0.52392835    -0.28300
C621        C  0.65860289  0.89137960  0.49333934     0.07200
C622        C  0.67524937  0.84005828  0.98519112    -0.27000
H623        H  0.72072212  0.87575675  0.57856546     0.11900
H624        H  0.80091406  0.90253080  0.58226299     0.13100
H625        H  0.72020982  0.89424658  0.93228644     0.12100
H626        H  0.80065681  0.94719090  0.93050447     0.11400
H627        H  0.87549788  0.98025703  0.95755231     0.16800
H628        H  0.87656964  0.94321617  0.55638725     0.12700
H629        H  0.65530144  0.86806242  0.54573678     0.15500
H630        H  0.65431985  0.83579468  0.96284264     0.15300
C631        C  0.63254893  0.04595668  0.60768026    -0.17600
C632        C  0.64298370  0.02591369  0.58093734    -0.19700
C633        C  0.62239777  0.97965496  0.57910435     0.20900
C634        C  0.59260922  0.95356501  0.60551859    -0.02700
C635        C  0.58193861  0.97375337  0.63240385    -0.05700
C636        C  0.60129692  0.02011710  0.63312994     0.21200
C637        C  0.55029827  0.94729014  0.65762758     0.19400
C638        C  0.53083502  0.90120483  0.65651231    -0.17200
C639        C  0.54119438  0.88126963  0.62985649    -0.19400
C640        C  0.57132241  0.90706528  0.60391063     0.20800
C641        C  0.57751897  0.88695504  0.57494866    -0.32400
C642        C  0.60360515  0.91246683  0.54699272     0.01500
C643        C  0.62802746  0.95871082  0.55016319    -0.23800
C644        C  0.58788959  0.03951577  0.65856381    -0.28300
C645        C  0.55517708  0.01304816  0.68309081     0.07200
C646        C  0.53737716  0.96708696  0.68281933    -0.27000
H647        H  0.64802286  0.08162413  0.60791774     0.11900
H648        H  0.66614335  0.04657623  0.56102768     0.13100
H649        H  0.50660877  0.88045264  0.67572201     0.12100
H650        H  0.52450827  0.84552288  0.62891491     0.11400
H651        H  0.55792449  0.85127729  0.57227319     0.16800
H652        H  0.64803997  0.97839103  0.52835607     0.12700
H653        H  0.60202916  0.07503516  0.65868713     0.15500
H654        H  0.51246097  0.94648010  0.70169012     0.15300
C655        C  0.62858612  0.64912565  0.93557387    -0.17600
C656        C  0.62008426  0.62016694  0.90785031    -0.19700
C657        C  0.59927272  0.62300210  0.87733387     0.20900
C658        C  0.58876860  0.65666641  0.87413888    -0.02700
C659        C  0.59792857  0.68632369  0.90196232    -0.05700
C660        C  0.61679434  0.68174731  0.93318742     0.21200
C661        C  0.58557431  0.71870818  0.89931127     0.19400
C662        C  0.56605869  0.72244239  0.86842944    -0.17200
C663        C  0.55694505  0.69308272  0.84093963    -0.19400
C664        C  0.56722502  0.65943852  0.84380930     0.20800
C665        C  0.55489949  0.62762610  0.81744556    -0.32400
C666        C  0.56404976  0.59315439  0.82086055     0.01500
C667        C  0.58731383  0.59182445  0.85052781    -0.23800
C668        C  0.62020171  0.70744217  0.96223965    -0.28300
C669        C  0.60467424  0.73727780  0.96042402     0.07200
C670        C  0.58957504  0.74431301  0.92845369    -0.27000
H671        H  0.64321252  0.64515802  0.95923327     0.11900
H672        H  0.62862590  0.59468034  0.91069998     0.13100
H673        H  0.55642628  0.74718033  0.86595413     0.12100
H674        H  0.54074008  0.69594698  0.81778777     0.11400
H675        H  0.53739835  0.62917797  0.79457970     0.16800
H676        H  0.59459853  0.56546209  0.85338923     0.12700
H677        H  0.63059394  0.70102184  0.98710170     0.15500
H678        H  0.57639210  0.76635505  0.92732330     0.15300
C679        C  0.93201397  0.83645756  0.57193711    -0.17600
C680        C  0.91817224  0.79148945  0.57235776    -0.19700
C681        C  0.89701217  0.76489434  0.54323866     0.20900
C682        C  0.88897758  0.78358770  0.51357359    -0.02700
C683        C  0.90304862  0.82911097  0.51313065    -0.05700
C684        C  0.92501802  0.85563893  0.54237174     0.21200
C685        C  0.88175596  0.85517280  0.96650035     0.19400
C686        C  0.85704802  0.83719374  0.93583400    -0.17200
C687        C  0.82659614  0.79176119  0.93315345    -0.19400
C688        C  0.82012816  0.76348222  0.96114784     0.20800
C689        C  0.78952650  0.71786979  0.95864957    -0.32400
C690        C  0.78230661  0.68966875  0.98694363     0.01500
C691        C  0.88458488  0.72016909  0.54305641    -0.23800
C692        C  0.94114005  0.90117884  0.54111212    -0.28300
C693        C  0.93715160  0.92101458  0.51065441     0.07200
C694        C  0.91184550  0.90079285  0.96952879    -0.27000
H695        H  0.94894773  0.85643171  0.59454392     0.11900
H696        H  0.92456304  0.77761960  0.59532608     0.13100
H697        H  0.86120882  0.85832214  0.91390179     0.12100
H698        H  0.80797722  0.77874303  0.90917837     0.11400
H699        H  0.77045174  0.70427096  0.93493230     0.16800
H700        H  0.89148561  0.70595091  0.56557109     0.12700
H701        H  0.95888239  0.92176780  0.56327533     0.15500
H702        H  0.91580404  0.92257391  0.94810126     0.15300
C703        C  0.66379819  0.60478934  0.59858037    -0.17600
C704        C  0.70009322  0.62081152  0.57597712    -0.19700
C705        C  0.73623557  0.61496111  0.58366000     0.20900
C706        C  0.73591074  0.59329799  0.61473941    -0.02700
C707        C  0.69895609  0.57638249  0.63714247    -0.05700
C708        C  0.66268885  0.58215249  0.62907162     0.21200
C709        C  0.69801179  0.55296581  0.66731020     0.19400
C710        C  0.73422481  0.54747935  0.67524959    -0.17200
C711        C  0.77096270  0.56465212  0.65333516    -0.19400
C712        C  0.77187188  0.58712534  0.62293372     0.20800
C713        C  0.80698293  0.60116819  0.59965671    -0.32400
C714        C  0.80596507  0.61949611  0.56747409     0.01500
C715        C  0.77144604  0.62803026  0.56007427    -0.23800
C716        C  0.62599101  0.56488275  0.65156371    -0.28300
C717        C  0.62488190  0.54129346  0.68162414     0.07200
C718        C  0.66089940  0.53526543  0.68908037    -0.27000
H719        H  0.63622962  0.60955112  0.59193361     0.11900
H720        H  0.69963637  0.63726506  0.55229178     0.13100
H721        H  0.73402082  0.52967981  0.69830427     0.12100
H722        H  0.79830428  0.55947698  0.65980333     0.11400
H723        H  0.83359532  0.59458294  0.60535286     0.16800
H724        H  0.77016888  0.64150675  0.53503316     0.12700
H725        H  0.59813971  0.56944414  0.64552661     0.15500
H726        H  0.66030350  0.51721661  0.71212162     0.15300
C727        C  0.90306114  0.61763524  0.89046288    -0.17600
C728        C  0.88238349  0.63113816  0.91446295    -0.19700
C729        C  0.83919807  0.62336526  0.90813242     0.20900
C730        C  0.81744416  0.60313313  0.87657604    -0.02700
C731        C  0.83798177  0.58873870  0.85264329    -0.05700
C732        C  0.88076495  0.59551189  0.85985567     0.21200
C733        C  0.81486228  0.56587248  0.82225530     0.19400
C734        C  0.77244143  0.55959355  0.81520693    -0.17200
C735        C  0.75234894  0.57420961  0.83866177    -0.19400
C736        C  0.77414564  0.59509543  0.86972733     0.20800
C737        C  0.75211749  0.60526369  0.89500969    -0.32400
C738        C  0.77185950  0.62188885  0.92771507     0.01500
C739        C  0.81625162  0.63271693  0.93359260    -0.23800
C740        C  0.89969689  0.57853616  0.83706266    -0.28300
C741        C  0.87585718  0.55367106  0.80767086     0.07200
C742        C  0.83381587  0.54832498  0.80010661    -0.27000
H743        H  0.93603239  0.62331399  0.89637717     0.11900
H744        H  0.89977862  0.64671887  0.93838559     0.13100
H745        H  0.75432396  0.54243718  0.79191933     0.12100
H746        H  0.71906566  0.56784225  0.83302082     0.11400
H747        H  0.71787361  0.59666262  0.89038849     0.16800
H748        H  0.83145091  0.64478236  0.95887255     0.12700
H749        H  0.93222362  0.58306980  0.84302276     0.15500
H750        H  0.81544549  0.52974142  0.77732769     0.15300
C751        C  0.11310178  0.95730615  0.06622853    -0.17600
C752        C  0.14049137  0.93886533  0.06636337    -0.19700
C753        C  0.14220170  0.91594354  0.03726355     0.20900
C754        C  0.08042539  0.87977949  0.49152299    -0.02700
C755        C  0.06543361  0.91006220  0.49542497    -0.05700
C756        C  0.08672326  0.95302986  0.03704754     0.21200
C757        C  0.05164867  0.92428993  0.46603223     0.19400
C758        C  0.05357695  0.90871431  0.43305054    -0.17200
C759        C  0.06845160  0.87881445  0.42920808    -0.19400
C760        C  0.08160167  0.86390395  0.45828535     0.20800
C761        C  0.09506816  0.83276618  0.45469063    -0.32400
C762        C  0.10840578  0.81764774  0.48370622     0.01500
C763        C  0.17041410  0.89820580  0.03683279    -0.23800
C764        C  0.05983003  0.97218642  0.03642212    -0.28300
C765        C  0.03283993  0.96814520  0.50329528     0.07200
C766        C  0.03524418  0.95302901  0.47021370    -0.27000
H767        H  0.11275186  0.97516921  0.08891385     0.11900
H768        H  0.16064816  0.94285389  0.08917255     0.13100
H769        H  0.04319685  0.91936896  0.41022399     0.12100
H770        H  0.06932187  0.86705135  0.40347784     0.11400
H771        H  0.09397635  0.81935875  0.42925091     0.16800
H772        H  0.19131963  0.90231483  0.05917820     0.12700
H773        H  0.05930809  0.99054580  0.05872860     0.15500
H774        H  0.02322768  0.96289400  0.44785656     0.15300
C775        C  0.12023352  0.71046363  0.61901837    -0.17600
C776        C  0.10026611  0.68030365  0.64617788    -0.19700
C777        C  0.05386238  0.65171013  0.64674003     0.20900
C778        C  0.02716714  0.65456132  0.62021284    -0.02700
C779        C  0.04733696  0.68509627  0.59279109    -0.05700
C780        C  0.09416216  0.71255811  0.59194263     0.21200
C781        C  0.02090704  0.68639501  0.56527416     0.19400
C782        C  0.97440502  0.65849443  0.56622395    -0.17200
C783        C  0.95437668  0.62854831  0.59357868    -0.19400
C784        C  0.98051902  0.62579312  0.62037632     0.20800
C785        C  0.96098722  0.59407258  0.64684866    -0.32400
C786        C  0.98748551  0.59033600  0.67298337     0.01500
C787        C  0.03386816  0.61964644  0.67289815    -0.23800
C788        C  0.11427547  0.73912151  0.56280446    -0.28300
C789        C  0.08835085  0.73790110  0.53424117     0.07200
C790        C  0.04170140  0.71312425  0.53619213    -0.27000
H791        H  0.15624392  0.73130548  0.61868942     0.11900
H792        H  0.12122574  0.67868700  0.66636950     0.13100
H793        H  0.95358860  0.65903108  0.54537448     0.12100
H794        H  0.91849216  0.60682051  0.59334689     0.11400
H795        H  0.92519706  0.57170264  0.64670833     0.16800
H796        H  0.05448945  0.61714454  0.69295238     0.12700
H797        H  0.15034781  0.75744974  0.56081268     0.15500
H798        H  0.02196693  0.71142877  0.51377019     0.15300
C799        C  0.29715590  0.89619214  0.83268410    -0.17600
C800        C  0.26513346  0.87340195  0.85816769    -0.19700
C801        C  0.26590641  0.89454551  0.88915909     0.20900
C802        C  0.29806442  0.93964729  0.89395152    -0.02700
C803        C  0.33061562  0.96257450  0.86831473    -0.05700
C804        C  0.33062387  0.94045525  0.83783980     0.21200
C805        C  0.36435587  0.00694870  0.87392906     0.19400
C806        C  0.36438839  0.02841374  0.90455989    -0.17200
C807        C  0.33227908  0.00563690  0.93003608    -0.19400
C808        C  0.29951190  0.96101641  0.92530279     0.20800
C809        C  0.27069015  0.93644361  0.95241555    -0.32400
C810        C  0.24163689  0.89070713  0.94878640     0.01500
C811        C  0.23763545  0.87049705  0.91655399    -0.23800
C812        C  0.36497801  0.96243349  0.81366791    -0.28300
C813        C  0.39943844  0.00620505  0.81958324     0.07200
C814        C  0.39833360  0.02855731  0.84940475    -0.27000
H815        H  0.29652738  0.87880328  0.80937900     0.11900
H816        H  0.24061801  0.83877195  0.85411083     0.13100
H817        H  0.38999181  0.06252730  0.90924458     0.12100
H818        H  0.33396212  0.02254900  0.95391525     0.11400
H819        H  0.27455140  0.95171522  0.97757027     0.16800
H820        H  0.21586372  0.83498251  0.91411633     0.12700
H821        H  0.36543920  0.94514346  0.79063293     0.15500
H822        H  0.42474967  0.06233654  0.85412115     0.15300
C823        C  0.21422247  0.18072166  0.57212868    -0.17600
C824        C  0.16866868  0.14906125  0.57131683    -0.19700
C825        C  0.14940009  0.12199017  0.54208879     0.20900
C826        C  0.17630436  0.12678308  0.51339503    -0.02700
C827        C  0.22052121  0.11700277  0.99200595    -0.05700
C828        C  0.24132266  0.18590288  0.54372038     0.21200
C829        C  0.23790604  0.11541021  0.95952677     0.19400
C830        C  0.20942120  0.09925073  0.93049748    -0.17200
C831        C  0.16380115  0.08343517  0.93376461    -0.19400
C832        C  0.14585434  0.08371579  0.96608748     0.20800
C833        C  0.09973391  0.06536606  0.96989414    -0.32400
C834        C  0.08376738  0.06573058  0.51062917     0.01500
C835        C  0.10348381  0.09120127  0.54062777    -0.23800
C836        C  0.28700786  0.21765319  0.54432743    -0.28300
C837        C  0.31150651  0.14293852  0.98604915     0.07200
C838        C  0.28311620  0.12856253  0.95678137    -0.27000
H839        H  0.22825188  0.20130071  0.59496524     0.11900
H840        H  0.14840983  0.14598075  0.59347129     0.13100
H841        H  0.22228922  0.09798619  0.90533839     0.12100
H842        H  0.14240629  0.07025986  0.91108836     0.11400
H843        H  0.07762312  0.05046233  0.94776478     0.16800
H844        H  0.08250048  0.08842432  0.56220890     0.12700
H845        H  0.30157856  0.23856275  0.56694351     0.15500
H846        H  0.29586968  0.12570425  0.93203443     0.15300
C847        C  0.37684669  0.12497587  0.58404271    -0.17600
C848        C  0.39194307  0.10437583  0.60703529    -0.19700
C849        C  0.41273995  0.12470904  0.63851948     0.20900
C850        C  0.41678741  0.16540332  0.64759410    -0.02700
C851        C  0.40122058  0.18606093  0.62448323    -0.05700
C852        C  0.38211843  0.16623572  0.59218550     0.21200
C853        C  0.40720298  0.22776115  0.63282048     0.19400
C854        C  0.42641486  0.24729573  0.66489003    -0.17200
C855        C  0.44167718  0.22677195  0.68782818    -0.19400
C856        C  0.43806585  0.18635645  0.67905231     0.20800
C857        C  0.45642329  0.16716701  0.70067128    -0.32400
C858        C  0.45343425  0.12709400  0.69135052     0.01500
C859        C  0.43068478  0.10568641  0.66057962    -0.23800
C860        C  0.37180511  0.18946948  0.56760888    -0.28300
C861        C  0.38152184  0.23265001  0.57468682     0.07200
C862        C  0.39702990  0.25061939  0.60792257    -0.27000
H863        H  0.36225445  0.10924833  0.55944533     0.11900
H864        H  0.38839410  0.07299693  0.59974589     0.13100
H865        H  0.43098001  0.27921436  0.67177590     0.12100
H866        H  0.45738839  0.24309000  0.71200294     0.11400
H867        H  0.47331081  0.18354110  0.72454817     0.16800
H868        H  0.42797815  0.07466529  0.65328023     0.12700
H869        H  0.36065994  0.17588436  0.54182617     0.15500
H870        H  0.40495295  0.28412455  0.61326040     0.15300
C871        C  0.42010296  0.22724827  0.83620732    -0.17600
C872        C  0.43622479  0.26317739  0.81334535    -0.19700
C873        C  0.43814788  0.30246074  0.82332107     0.20900
C874        C  0.42201962  0.30483318  0.85623122    -0.02700
C875        C  0.40583855  0.26853214  0.87940416    -0.05700
C876        C  0.40567032  0.22991710  0.86951255     0.21200
C877        C  0.39175454  0.27165101  0.91298706     0.19400
C878        C  0.39255180  0.31052451  0.92254703    -0.17200
C879        C  0.40806751  0.34623706  0.89947843    -0.19400
C880        C  0.42343340  0.34398498  0.86646016     0.20800
C881        C  0.44121323  0.38055028  0.84388778    -0.32400
C882        C  0.45887407  0.37906087  0.81159093     0.01500
C883        C  0.45684162  0.33970060  0.80136362    -0.23800
C884        C  0.39359571  0.19573809  0.89374375    -0.28300
C885        C  0.38220708  0.19965555  0.92797472     0.07200
C886        C  0.37964323  0.23698487  0.93701600    -0.27000
H887        H  0.42003018  0.19774083  0.82814838     0.11900
H888        H  0.44802325  0.26053223  0.78809598     0.13100
H889        H  0.38200152  0.31366544  0.94815112     0.12100
H890        H  0.40892584  0.37605222  0.90778262     0.11400
H891        H  0.44265891  0.41074564  0.85194215     0.16800
H892        H  0.46988291  0.33811672  0.77635032     0.12700
H893        H  0.39594973  0.16718297  0.88670826     0.15500
H894        H  0.37176165  0.24062978  0.96345264     0.15300
C895        C  0.08697483  0.21966335  0.54849414    -0.17600
C896        C  0.11899921  0.26448498  0.54368041    -0.19700
C897        C  0.14070998  0.27965318  0.51173998     0.20900
C898        C  0.12886078  0.24940748  0.48406198    -0.02700
C899        C  0.09673611  0.20412076  0.48897874    -0.05700
C900        C  0.07607538  0.18901742  0.52151237     0.21200
C901        C  0.06938719  0.18404152  0.98390314     0.19400
C902        C  0.09038570  0.21164976  0.95536000    -0.17200
C903        C  0.10345155  0.25649557  0.95642752    -0.19400
C904        C  0.09582397  0.27462496  0.98608373     0.20800
C905        C  0.10754398  0.31928907  0.98697001    -0.32400
C906        C  0.19672170  0.33872509  0.47519659     0.01500
C907        C  0.17476383  0.32413916  0.50719665    -0.23800
C908        C  0.04612856  0.14345533  0.52672880    -0.28300
C909        C  0.03720570  0.11298690  0.49988226     0.07200
C910        C  0.05399303  0.13849358  0.98236471    -0.27000
H911        H  0.07134220  0.20882039  0.57358726     0.11900
H912        H  0.12731343  0.28718660  0.56516222     0.13100
H913        H  0.09618378  0.19841849  0.93198586     0.12100
H914        H  0.11913979  0.27692773  0.93388774     0.11400
H915        H  0.12269842  0.34026523  0.96458885     0.16800
H916        H  0.18451725  0.34726917  0.52852847     0.12700
H917        H  0.03128976  0.13143582  0.55194400     0.15500
H918        H  0.05756759  0.12409993  0.95871422     0.15300
C919        C  0.30982318  0.46441508  0.60463560    -0.17600
C920        C  0.33845485  0.47596915  0.63336005    -0.19700
C921        C  0.36266237  0.45469120  0.63956780     0.20900
C922        C  0.35736260  0.42086471  0.61688431    -0.02700
C923        C  0.32856387  0.40928980  0.58780546    -0.05400
C924        C  0.30503920  0.43151108  0.58155167     0.21200
C925        C  0.32515397  0.37720837  0.56402243     0.19400
C926        C  0.34922290  0.35578907  0.57029920    -0.17200
C927        C  0.37727719  0.36682715  0.59938441    -0.19400
C928        C  0.38201221  0.39969167  0.62254789     0.20800
C929        C  0.41181482  0.41255149  0.65075138    -0.32400
C930        C  0.41779848  0.44669404  0.67317589     0.01500
C931        C  0.39283133  0.46737016  0.66756236    -0.23800
C932        C  0.27984133  0.42283289  0.55099255    -0.28300
C933        C  0.27931286  0.39367396  0.52599459     0.07200
C934        C  0.30044934  0.36960321  0.53317289    -0.27000
H935        H  0.29226422  0.48203422  0.59998069     0.11900
H936        H  0.34220361  0.50205279  0.65042317     0.13100
H937        H  0.34714942  0.33122441  0.55229231     0.12100
H938        H  0.39608403  0.35035297  0.60332870     0.11400
H939        H  0.43112510  0.39658557  0.65477752     0.16800
H940        H  0.39745836  0.49384159  0.68459137     0.12700
H941        H  0.26466249  0.44240600  0.54481067     0.15500
H942        H  0.30111409  0.34819933  0.51338113     0.15300
C943        C  0.08085046  0.44240131  0.84688022    -0.17600
C944        C  0.09825337  0.42924405  0.87419061    -0.19700
C945        C  0.07204378  0.40716607  0.90310490     0.20900
C946        C  0.02705154  0.39610816  0.90369529    -0.02700
C947        C  0.00928563  0.40900574  0.87587029    -0.05700
C948        C  0.03674518  0.43336519  0.84781851     0.21200
C949        C  0.96480883  0.39948464  0.87696769     0.19400
C950        C  0.93805654  0.37577523  0.90529740    -0.17200
C951        C  0.95596953  0.36396328  0.93323968    -0.19400
C952        C  0.00081095  0.37502307  0.93312785     0.20800
C953        C  0.02099548  0.36906240  0.96293116    -0.32400
C954        C  0.06688188  0.38363172  0.96341090     0.01500
C955        C  0.09124473  0.39974547  0.93264537    -0.23800
C956        C  0.02017791  0.44951006  0.82177599    -0.28300
C957        C  0.97626630  0.44124868  0.82309583     0.07200
C958        C  0.94844960  0.41520528  0.85038036    -0.27000
H959        H  0.10228421  0.46069568  0.82544945     0.11900
H960        H  0.13286960  0.43797773  0.87332354     0.13100
H961        H  0.90367057  0.36773990  0.90644188     0.12100
H962        H  0.93513225  0.34741710  0.95541859     0.11400
H963        H  0.00231358  0.35766262  0.98683401     0.16800
H964        H  0.12680599  0.41210004  0.93322272     0.12700
H965        H  0.04166655  0.46900707  0.80070842     0.15500
H966        H  0.91444926  0.40835768  0.85154276     0.15300
C967        C  0.86327812  0.06904386  0.57613328    -0.17600
C968        C  0.83249336  0.08317087  0.57833822    -0.19700
C969        C  0.82587286  0.10476666  0.55024064     0.20900
C970        C  0.85110285  0.11295758  0.51980796    -0.02700
C971        C  0.88234557  0.09882259  0.51762859    -0.05700
C972        C  0.88804008  0.07640021  0.54584766     0.21200
C973        C  0.91868148  0.11294451  0.97434825     0.19400
C974        C  0.92152959  0.13785759  0.94485793    -0.17200
C975        C  0.90358375  0.16557338  0.94501581    -0.19400
C976        C  0.88264942  0.16910916  0.97472042     0.20800
C977        C  0.86541634  0.19758930  0.97537848    -0.32400
C978        C  0.78500157  0.13630068  0.52281272     0.01500
C979        C  0.79336818  0.11690779  0.55162267    -0.23800
C980        C  0.91719119  0.06031416  0.54287184    -0.28300
C981        C  0.94006204  0.06542424  0.51186951     0.07200
C982        C  0.93777653  0.08606015  0.97482289    -0.27000
H983        H  0.86720763  0.05171663  0.59794355     0.11900
H984        H  0.81329058  0.07652725  0.60181829     0.13100
H985        H  0.93793223  0.13613897  0.92171523     0.12100
H986        H  0.90643337  0.18457394  0.92195438     0.11400
H987        H  0.86841724  0.21729418  0.95273678     0.16800
H988        H  0.77294350  0.10939186  0.57451669     0.12700
H989        H  0.92067080  0.04192323  0.56412416     0.15500
H990        H  0.95532525  0.08465288  0.95226827     0.15300
C991        C  0.74399784  0.23133807  0.66010356    -0.17600
C992        C  0.76377402  0.26901084  0.68112031    -0.19700
C993        C  0.80637634  0.30461316  0.67350388     0.20900
C994        C  0.82957628  0.30183148  0.64471243    -0.02700
C995        C  0.80921776  0.26401269  0.62307958    -0.05700
C996        C  0.76617071  0.22882543  0.63082063     0.21200
C997        C  0.83123382  0.26202991  0.59315597     0.19400
C998        C  0.87439187  0.29723717  0.58613200    -0.17200
C999        C  0.89500638  0.33426734  0.60804132    -0.19400
C1000       C  0.87262964  0.33721486  0.63707813     0.20800
C1001       C  0.89212462  0.37513797  0.65825636    -0.32400
C1002       C  0.86868294  0.37863838  0.68645773     0.01500
C1003       C  0.82587029  0.34308425  0.69394582    -0.23800
C1004       C  0.74496452  0.19268603  0.60824214    -0.28300
C1005       C  0.76484716  0.19189189  0.57685123     0.07200
C1006       C  0.80879966  0.22600192  0.57002585    -0.27000
H1007       H  0.71078469  0.20454782  0.66628858     0.11900
H1008       H  0.74556523  0.27046341  0.70315491     0.13100
H1009       H  0.89197555  0.29640444  0.56344468     0.12100
H1010       H  0.92819554  0.36108503  0.60183289     0.11400
H1011       H  0.92522297  0.40234270  0.65234448     0.16800
H1012       H  0.80777544  0.34529110  0.71577774     0.12700
H1013       H  0.71140455  0.16630850  0.61402883     0.15500
H1014       H  0.82431528  0.22607474  0.54581266     0.15300
C1015       C  0.64460393  0.08439168  0.90655258    -0.17600
C1016       C  0.67859432  0.10273550  0.93173529    -0.19700
C1017       C  0.71604711  0.14505303  0.92707837     0.20900
C1018       C  0.72007498  0.16828508  0.89601046    -0.02700
C1019       C  0.68569420  0.14985606  0.87067258    -0.05700
C1020       C  0.64739277  0.10805514  0.87626216     0.21200
C1021       C  0.68883576  0.17413407  0.84045300     0.19400
C1022       C  0.72703241  0.21569388  0.83514593    -0.17200
C1023       C  0.76087645  0.23405788  0.86030536    -0.19400
C1024       C  0.75721380  0.21106511  0.89111172     0.20800
C1025       C  0.78834355  0.23139923  0.91808386    -0.32400
C1026       C  0.78270966  0.20981217  0.95000708     0.01500
C1027       C  0.74781037  0.16586927  0.95384364    -0.23800
C1028       C  0.61207601  0.09134972  0.85197887    -0.28300
C1029       C  0.61433761  0.11617256  0.82241152     0.07200
C1030       C  0.65320053  0.15715572  0.81658104    -0.27000
H1031       H  0.61556297  0.05212609  0.91119266     0.11900
H1032       H  0.67494016  0.08435051  0.95532966     0.13100
H1033       H  0.73016535  0.23457306  0.81196248     0.12100
H1034       H  0.78930957  0.26686181  0.85612215     0.11400
H1035       H  0.81492238  0.26555543  0.91540156     0.16800
H1036       H  0.74294901  0.14960235  0.97873422     0.12700
H1037       H  0.58232326  0.05956851  0.85658217     0.15500
H1038       H  0.65544993  0.17617777  0.79368861     0.15300
loop_ 
_geom_bond_atom_site_label_1 
_geom_bond_atom_site_label_2 
_geom_bond_distance 
_geom_bond_site_symmetry_2 
_ccdc_geom_bond_type 
N1            C2   1.362       .  A
N1          C524   1.365       .  A
N1          C978   1.441       .  S
C2            C3   1.378       .  A
C2          C507   1.479       .  S
C3          C523   1.367       .  A
C3            H6   1.082       .  S
C4            C5   1.380       .  A
C4          C522   1.367   1_554  A
C4            H7   1.083       .  S
C5          N520   1.361       .  A
C5          C486   1.474       .  S
N8           C12   1.365       .  A
N8          C528   1.364   1_554  A
N8          C387   1.442       .  S
C9          N527   1.361       .  A
C9           C10   1.383       .  A
C9          C435   1.477       .  S
C10         C530   1.365       .  A
C10          H13   1.082       .  S
C11          C12   1.384       .  A
C11         C529   1.366       .  A
C11          H14   1.082       .  S
C12         C414   1.490       .  S
N15          C19   1.362       .  A
N15         C535   1.363       .  A
N15         C318   1.445       .  S
C16         N534   1.367   1_554  A
C16          C17   1.380   1_554  A
C16         C342   1.484       .  S
C17         C537   1.367       .  A
C17          H20   1.083       .  S
C18          C19   1.382       .  A
C18         C536   1.367       .  A
C18          H21   1.083       .  S
C19         C366   1.480       .  S
N22          C23   1.361       .  A
N22         C545   1.361   1_554  A
N22         C243   1.447       .  S
C23          C24   1.382       .  A
C23         C270   1.472       .  S
C24         C544   1.365   1_554  A
C24          H27   1.083       .  S
C25          C26   1.382       .  A
C25         C543   1.364       .  A
C25          H28   1.083       .  S
C26         N541   1.363       .  A
C26         C291   1.477       .  S
N29          C30   1.360       .  A
N29         C552   1.361       .  A
N29         C171   1.443       .  S
C30          C31   1.380       .  A
C30         C219   1.471       .  S
C31         C551   1.365       .  A
C31          H34   1.083       .  S
C32          C33   1.379   1_556  A
C32         C550   1.367       .  A
C32          H35   1.082   1_556  S
C33         N548   1.364   1_554  A
C33         C195   1.482       .  S
N36          C37   1.363       .  A
N36         C559   1.362   1_554  A
N36         C102   1.442       .  S
C37          C38   1.383       .  A
C37         C123   1.483       .  S
C38         C558   1.367       .  A
C38          H41   1.083       .  S
C39          C40   1.383       .  A
C39         C557   1.366       .  A
C39          H42   1.082       .  S
C40         N555   1.367       .  A
C40         C150   1.489       .  S
C43          C44   1.422   1_655  A
C43          C48   1.416   1_545  A
C43         C462   1.497       .  S
C44          C45   1.420       .  A
C44         C390   1.491       .  S
C45          C46   1.425   1_545  A
C45         C315   1.494       .  S
C46          C47   1.421   1_455  A
C46         C246   1.497       .  S
C47          C48   1.421       .  A
C47         C174   1.495       .  S
C48          C99   1.493       .  S
In49         O51   2.216       .  S
In49         O52   2.264   1_455  S
In49         O60   2.240       .  S
In49         O54   2.230       .  S
In49         O56   2.244       .  S
In49         O57   2.232   1_455  S
In49         O58   2.227       .  S
In49         O61   2.249       .  S
C50         C267   1.474       .  S
C50          O56   1.264       .  A
C50          O58   1.261       .  A
O51          C59   1.259   1_455  A
O52          C59   1.266       .  A
C53         C438   1.472       .  S
C53          O60   1.261       .  A
C53          O54   1.262       .  A
C55         C222   1.479   1_455  S
C55          O57   1.265   1_455  A
C55          O61   1.262       .  A
C59         C483   1.477       .  S
In62         O64   2.246       .  S
In62         O65   2.265   1_565  S
In62         O73   2.241       .  S
In62         O67   2.242       .  S
In62         O69   2.254       .  S
In62         O70   2.264   1_565  S
In62         O71   2.231       .  S
In62         O74   2.258       .  S
C63         C126   1.480       .  S
C63          O69   1.266       .  A
C63          O71   1.262       .  A
O64          C72   1.261       .  A
O65          C72   1.269   1_545  A
C66         C294   1.476       .  S
C66          O73   1.262       .  A
C66          O67   1.265       .  A
C68         C510   1.491   1_565  S
C68          O70   1.268   1_565  A
C68          O74   1.263       .  A
C72         C339   1.489   1_565  S
In75         O77   2.250       .  S
In75         O78   2.265       .  S
In75         O86   2.260       .  S
In75         O80   2.280       .  S
In75         O82   2.271       .  S
In75         O83   2.258       .  S
In75         O84   2.260       .  S
In75         O87   2.259       .  S
C76         C411   1.490       .  S
C76          O82   1.265       .  A
C76          O84   1.260       .  A
O77          C85   1.261       .  A
O78          C85   1.264       .  A
C79         C147   1.491       .  S
C79          O86   1.259       .  A
C79          O80   1.263       .  A
C81         C363   1.487       .  S
C81          O83   1.264       .  A
C81          O87   1.262       .  A
C85         C198   1.487       .  S
C88          C89   1.400       .  A
C88          C93   1.404       .  A
C88         H104   1.084       .  S
C89          C90   1.404       .  A
C89         H105   1.084       .  S
C90         C100   1.404       .  A
C90          C91   1.411       .  A
C91          C92   1.415       .  A
C91         C616   1.413   1_554  A
C92          C93   1.412       .  A
C92         C613   1.412   1_554  A
C93         C101   1.406       .  A
C94         C103   1.403       .  A
C94          C95   1.403       .  A
C94         C611   1.412       .  A
C95          C96   1.398       .  A
C95         H106   1.083       .  S
C96          C97   1.403       .  A
C96         H107   1.083       .  S
C97          C98   1.402       .  A
C97         C610   1.411       .  A
C98         C618   1.405       .  A
C98         H108   1.084       .  S
C99         C100   1.406       .  A
C99         C617   1.405   1_554  A
C100        H109   1.085       .  S
C101        C102   1.406       .  A
C101        H110   1.084       .  S
C102        C622   1.405   1_554  A
C103        C621   1.405       .  A
C103        H111   1.084       .  S
C112        C113   1.402       .  A
C112        C117   1.405       .  A
C112        H128   1.084       .  S
C113        C114   1.405       .  A
C113        H129   1.083       .  S
C114        C124   1.412       .  A
C114        C115   1.415       .  A
C115        C121   1.409       .  A
C115        C116   1.414       .  A
C116        C118   1.414       .  A
C116        C117   1.410       .  A
C117        C125   1.405       .  A
C118        C127   1.404       .  A
C118        C119   1.402       .  A
C119        C120   1.397       .  A
C119        H130   1.083       .  S
C120        C121   1.403       .  A
C120        H131   1.084       .  S
C121        C122   1.399       .  A
C122        C123   1.406       .  A
C122        H132   1.085       .  S
C123        C124   1.408       .  A
C124        H133   1.084       .  S
C125        C126   1.409       .  A
C125        H134   1.084       .  S
C126        C127   1.404       .  A
C127        H135   1.084       .  S
C136        C137   1.403       .  A
C136        C141   1.405       .  A
C136        H152   1.083       .  S
C137        C138   1.405       .  A
C137        H153   1.084       .  S
C138        C148   1.409       .  A
C138        C139   1.410       .  A
C139        C145   1.413       .  A
C139        C140   1.418       .  A
C140        C142   1.410       .  A
C140        C141   1.414       .  A
C141        C149   1.413       .  A
C142        C151   1.404       .  A
C142        C143   1.404       .  A
C143        C144   1.400       .  A
C143        H154   1.084       .  S
C144        C145   1.404       .  A
C144        H155   1.083       .  S
C145        C146   1.409       .  A
C146        C147   1.408       .  A
C146        H156   1.084       .  S
C147        C148   1.410       .  A
C148        H157   1.084       .  S
C149        C150   1.408       .  A
C149        H158   1.084       .  S
C150        C151   1.409       .  A
C151        H159   1.085       .  S
C160        C161   1.402       .  A
C160        C165   1.404       .  A
C160        H176   1.083       .  S
C161        C162   1.405       .  A
C161        H177   1.083       .  S
C162        C172   1.409       .  A
C162        C163   1.412   1_554  A
C163        C164   1.416       .  A
C163        C688   1.412       .  A
C164        C165   1.413   1_556  A
C164        C685   1.411       .  A
C165        C173   1.409       .  A
C166        C175   1.410       .  A
C166        C167   1.405       .  A
C166        C683   1.413       .  A
C167        C168   1.403       .  A
C167        H178   1.083       .  S
C168        C169   1.405       .  A
C168        H179   1.083       .  S
C169        C170   1.410       .  A
C169        C682   1.413       .  A
C170        C171   1.407       .  A
C170        H180   1.084       .  S
C171        C691   1.405       .  A
C172        C690   1.408   1_554  A
C172        H181   1.083       .  S
C173        C174   1.406       .  A
C173        H182   1.084       .  S
C174        C694   1.406   1_554  A
C175        C693   1.407       .  A
C175        H183   1.084       .  S
C184        C185   1.402       .  A
C184        C189   1.405       .  A
C184        H200   1.084       .  S
C185        C186   1.405       .  A
C185        H201   1.083       .  S
C186        C196   1.411       .  A
C186        C187   1.414       .  A
C187        C193   1.410       .  A
C187        C188   1.416       .  A
C188        C190   1.413       .  A
C188        C189   1.411       .  A
C189        C197   1.407       .  A
C190        C199   1.407       .  A
C190        C191   1.404       .  A
C191        C192   1.400       .  A
C191        H202   1.083       .  S
C192        C193   1.404       .  A
C192        H203   1.084       .  S
C193        C194   1.403       .  A
C194        C195   1.406       .  A
C194        H204   1.085       .  S
C195        C196   1.407       .  A
C196        H205   1.084       .  S
C197        C198   1.410       .  A
C197        H206   1.084       .  S
C198        C199   1.407       .  A
C199        H207   1.084       .  S
C208        C209   1.403       .  A
C208        C213   1.406   1_455  A
C208        H224   1.083       .  S
C209        C210   1.406   1_455  A
C209        H225   1.083       .  S
C210        C220   1.408       .  A
C210        C211   1.413       .  A
C211        C217   1.412       .  A
C211        C212   1.412       .  A
C212        C214   1.412       .  A
C212        C213   1.412       .  A
C213        C221   1.408   1_655  A
C214        C223   1.398       .  A
C214        C215   1.402       .  A
C215        C216   1.396       .  A
C215        H226   1.083       .  S
C216        C217   1.402       .  A
C216        H227   1.084       .  S
C217        C218   1.399       .  A
C218        C219   1.403       .  A
C218        H228   1.085       .  S
C219        C220   1.405       .  A
C220        H229   1.082       .  S
C221        C222   1.410   1_455  A
C221        H230   1.084       .  S
C222        C223   1.403       .  A
C223        H231   1.084       .  S
C232        C233   1.402       .  A
C232        C237   1.404       .  A
C232        H248   1.083       .  S
C233        C234   1.405       .  A
C233        H249   1.083       .  S
C234        C244   1.409       .  A
C234        C754   1.411       .  A
C235        C241   1.411   1_554  A
C235        C236   1.417       .  A
C235        C753   1.413       .  A
C236        C238   1.413   1_554  A
C236        C756   1.411       .  A
C237        C245   1.408       .  A
C237        C755   1.412       .  A
C238        C247   1.408       .  A
C238        C239   1.404       .  A
C239        C240   1.401       .  A
C239        H250   1.083       .  S
C240        C241   1.404       .  A
C240        H251   1.083       .  S
C241        C242   1.407       .  A
C242        C243   1.407   1_556  A
C242        H252   1.083       .  S
C243        C763   1.408       .  A
C244        C762   1.410       .  A
C244        H253   1.082       .  S
C245        C765   1.405       .  A
C245        H254   1.084       .  S
C246        C247   1.406   1_554  A
C246        C764   1.408       .  A
C247        H255   1.084       .  S
C256        C257   1.398       .  A
C256        C261   1.404       .  A
C256        H272   1.083       .  S
C257        C258   1.403       .  A
C257        H273   1.084       .  S
C258        C268   1.402       .  A
C258        C259   1.413       .  A
C259        C265   1.410       .  A
C259        C260   1.411       .  A
C260        C262   1.414       .  A
C260        C261   1.410       .  A
C261        C269   1.400       .  A
C262        C271   1.405       .  A
C262        C263   1.403       .  A
C263        C264   1.399       .  A
C263        H274   1.084       .  S
C264        C265   1.404       .  A
C264        H275   1.083       .  S
C265        C266   1.401       .  A
C266        C267   1.406       .  A
C266        H276   1.084       .  S
C267        C268   1.404       .  A
C268        H277   1.084       .  S
C269        C270   1.405       .  A
C269        H278   1.085       .  S
C270        C271   1.403       .  A
C271        H279   1.084       .  S
C280        C281   1.397       .  A
C280        C285   1.403       .  A
C280        H296   1.083       .  S
C281        C282   1.403       .  A
C281        H297   1.084       .  S
C282        C292   1.398       .  A
C282        C283   1.411       .  A
C283        C289   1.413       .  A
C283        C284   1.412       .  A
C284        C286   1.411       .  A
C284        C285   1.412       .  A
C285        C293   1.401       .  A
C286        C295   1.405       .  A
C286        C287   1.404       .  A
C287        C288   1.401       .  A
C287        H298   1.084       .  S
C288        C289   1.404       .  A
C288        H299   1.083       .  S
C289        C290   1.407       .  A
C290        C291   1.405       .  A
C290        H300   1.084       .  S
C291        C292   1.404       .  A
C292        H301   1.085       .  S
C293        C294   1.404       .  A
C293        H302   1.084       .  S
C294        C295   1.407       .  A
C295        H303   1.084       .  S
C304        C305   1.404       .  A
C304        C309   1.406       .  A
C304        H320   1.083       .  S
C305        C306   1.405       .  A
C305        H321   1.084       .  S
C306        C316   1.412       .  A
C306        C307   1.413   1_554  A
C307        C832   1.412       .  A
C307        C827   1.417       .  A
C308        C310   1.412       .  A
C308        C826   1.415       .  A
C308        C828   1.411       .  A
C309        C317   1.412       .  A
C309        C827   1.412   1_554  A
C310        C319   1.409       .  A
C310        C311   1.404       .  A
C311        C312   1.402       .  A
C311        H322   1.083       .  S
C312        C313   1.404       .  A
C312        H323   1.083       .  S
C313        C314   1.409       .  A
C313        C826   1.413       .  A
C314        C834   1.406       .  A
C314        H324   1.083       .  S
C315        C316   1.408       .  A
C315        C833   1.404   1_554  A
C316        H325   1.084       .  S
C317        C837   1.410   1_554  A
C317        H326   1.083       .  S
C318        C319   1.407       .  A
C318        C836   1.407       .  A
C319        H327   1.083       .  S
C328        C329   1.404       .  A
C328        C333   1.406   1_565  A
C328        H344   1.084       .  S
C329        C330   1.406   1_565  A
C329        H345   1.084       .  S
C330        C340   1.410   1_545  A
C330        C331   1.411       .  A
C331        C337   1.413       .  A
C331        C332   1.418       .  A
C332        C334   1.411       .  A
C332        C333   1.413       .  A
C333        C341   1.412       .  A
C334        C343   1.406       .  A
C334        C335   1.404       .  A
C335        C336   1.400       .  A
C335        H346   1.084       .  S
C336        C337   1.403       .  A
C336        H347   1.083       .  S
C337        C338   1.406       .  A
C338        C339   1.405       .  A
C338        H348   1.084       .  S
C339        C340   1.412   1_545  A
C340        H349   1.085       .  S
C341        C342   1.409       .  A
C341        H350   1.084       .  S
C342        C343   1.406       .  A
C343        H351   1.085       .  S
C352        C353   1.398       .  A
C352        C357   1.404       .  A
C352        H368   1.084       .  S
C353        C354   1.403       .  A
C353        H369   1.083       .  S
C354        C364   1.405       .  A
C354        C355   1.413       .  A
C355        C361   1.411       .  A
C355        C356   1.415       .  A
C356        C358   1.415       .  A
C356        C357   1.410       .  A
C357        C365   1.400       .  A
C358        C367   1.411       .  A
C358        C359   1.404       .  A
C359        C360   1.403       .  A
C359        H370   1.084       .  S
C360        C361   1.406       .  A
C360        H371   1.083       .  S
C361        C362   1.408       .  A
C362        C363   1.410       .  A
C362        H372   1.084       .  S
C363        C364   1.407       .  A
C364        H373   1.084       .  S
C365        C366   1.406       .  A
C365        H374   1.085       .  S
C366        C367   1.405       .  A
C367        H375   1.083       .  S
C376        C377   1.400       .  A
C376        C381   1.404       .  A
C376        H392   1.083       .  S
C377        C378   1.404       .  A
C377        H393   1.084       .  S
C378        C388   1.405       .  A
C378        C379   1.412       .  A
C379        C380   1.415       .  A
C379        C904   1.412   1_554  A
C380        C381   1.411       .  A
C380        C901   1.413   1_554  A
C381        C389   1.403       .  A
C382        C391   1.403       .  A
C382        C383   1.403       .  A
C382        C899   1.411       .  A
C383        C384   1.399       .  A
C383        H394   1.083       .  S
C384        C385   1.404       .  A
C384        H395   1.084       .  S
C385        C386   1.404       .  A
C385        C898   1.411       .  A
C386        C906   1.407       .  A
C386        H396   1.084       .  S
C387        C388   1.406       .  A
C387        C905   1.405   1_554  A
C388        H397   1.084       .  S
C389        C390   1.406       .  A
C389        H398   1.084       .  S
C390        C910   1.405   1_554  A
C391        C909   1.405       .  A
C391        H399   1.085       .  S
C400        C401   1.398       .  A
C400        C405   1.403       .  A
C400        H416   1.084       .  S
C401        C402   1.403       .  A
C401        H417   1.083       .  S
C402        C412   1.406       .  A
C402        C403   1.413       .  A
C403        C409   1.410       .  A
C403        C404   1.417       .  A
C404        C406   1.415       .  A
C404        C405   1.409       .  A
C405        C413   1.400       .  A
C406        C415   1.416       .  A
C406        C407   1.406       .  A
C407        C408   1.405       .  A
C407        H418   1.083       .  S
C408        C409   1.406       .  A
C408        H419   1.084       .  S
C409        C410   1.410       .  A
C410        C411   1.412       .  A
C410        H420   1.084       .  S
C411        C412   1.406       .  A
C412        H421   1.084       .  S
C413        C414   1.407       .  A
C413        H422   1.085       .  S
C414        C415   1.410       .  A
C415        H423   1.084       .  S
C424        C425   1.397       .  A
C424        C429   1.403       .  A
C424        H440   1.083       .  S
C425        C426   1.403       .  A
C425        H441   1.085       .  S
C426        C436   1.398       .  A
C426        C427   1.411       .  A
C427        C433   1.413       .  A
C427        C428   1.410       .  A
C428        C430   1.412       .  A
C428        C429   1.412       .  A
C429        C437   1.399       .  A
C430        C439   1.403       .  A
C430        C431   1.404       .  A
C431        C432   1.400       .  A
C431        H442   1.085       .  S
C432        C433   1.404       .  A
C432        H443   1.082       .  S
C433        C434   1.405       .  A
C434        C435   1.405       .  A
C434        H444   1.083       .  S
C435        C436   1.405       .  A
C436        H445   1.085       .  S
C437        C438   1.404       .  A
C437        H446   1.084       .  S
C438        C439   1.406       .  A
C439        H447   1.085       .  S
C448        C449   1.401       .  A
C448        C453   1.403       .  A
C448        H464   1.083       .  S
C449        C450   1.404       .  A
C449        H465   1.083       .  S
C450        C460   1.407       .  A
C450        C451   1.412       .  A
C451        C452   1.417       .  A
C451        C976   1.412   1_554  A
C452        C453   1.413       .  A
C452        C973   1.412   1_554  A
C453        C461   1.407       .  A
C454        C463   1.407       .  A
C454        C455   1.404       .  A
C454        C971   1.413       .  A
C455        C456   1.402       .  A
C455        H466   1.084       .  S
C456        C457   1.405       .  A
C456        H467   1.083       .  S
C457        C458   1.407       .  A
C457        C970   1.412       .  A
C458        C978   1.406       .  A
C458        H468   1.083       .  S
C459        N520   1.446       .  S
C459        C460   1.407       .  A
C459        C977   1.408   1_554  A
C460        H469   1.083       .  S
C461        C462   1.405       .  A
C461        H470   1.084       .  S
C462        C982   1.408   1_554  A
C463        C981   1.405       .  A
C463        H471   1.084       .  S
C472        C473   1.400       .  A
C472        C477   1.404       .  A
C472        H488   1.084       .  S
C473        C474   1.404       .  A
C473        H489   1.083       .  S
C474        C484   1.407       .  A
C474        C475   1.414       .  A
C475        C481   1.410       .  A
C475        C476   1.412       .  A
C476        C478   1.414       .  A
C476        C477   1.410       .  A
C477        C485   1.403       .  A
C478        C487   1.405       .  A
C478        C479   1.404       .  A
C479        C480   1.398   1_655  A
C479        H490   1.083       .  S
C480        C481   1.404   1_455  A
C480        H491   1.084       .  S
C481        C482   1.399       .  A
C482        C483   1.406       .  A
C482        H492   1.085   1_655  S
C483        C484   1.406       .  A
C484        H493   1.084       .  S
C485        C486   1.405       .  A
C485        H494   1.085       .  S
C486        C487   1.404       .  A
C487        H495   1.084       .  S
C496        C497   1.402       .  A
C496        C501   1.407       .  A
C496        H512   1.083       .  S
C497        C498   1.405   1_565  A
C497        H513   1.086       .  S
C498        C508   1.406       .  A
C498        C499   1.412       .  A
C499        C505   1.412       .  A
C499        C500   1.416       .  A
C500        C502   1.412       .  A
C500        C501   1.412   1_545  A
C501        C509   1.410       .  A
C502        C511   1.406       .  A
C502        C503   1.404       .  A
C503        C504   1.400       .  A
C503        H514   1.083       .  S
C504        C505   1.403       .  A
C504        H515   1.083       .  S
C505        C506   1.406       .  A
C506        C507   1.404       .  A
C506        H516   1.085       .  S
C507        C508   1.404       .  A
C508        H517   1.090       .  S
C509        C510   1.412   1_565  A
C509        H518   1.084       .  S
C510        C511   1.407       .  A
C511        H519   1.084       .  S
N520        C521   1.362   1_554  A
C521        C522   1.382       .  A
C521       C1026   1.476       .  S
C522        H525   1.083       .  S
C523        C524   1.386       .  A
C523        H526   1.082       .  S
C524       C1005   1.492       .  S
N527        C531   1.359       .  A
N527        C906   1.448       .  S
C528        C529   1.379   1_556  A
C528        C954   1.480       .  S
C529        H532   1.082   1_554  S
C530        C531   1.380       .  A
C530        H533   1.083       .  S
C531        C933   1.468       .  S
N534        C538   1.369       .  A
N534        C837   1.449       .  S
C535        C536   1.381       .  A
C535        C861   1.481       .  S
C536        H539   1.082       .  S
C537        C538   1.382       .  A
C537        H540   1.083       .  S
C538        C885   1.491       .  S
N541        C542   1.363       .  A
N541        C762   1.451       .  S
C542        C543   1.379       .  A
C542        C789   1.472       .  S
C543        H546   1.083       .  S
C544        C545   1.380       .  A
C544        H547   1.083       .  S
C545        C810   1.472       .  S
N548        C549   1.367       .  A
N548        C690   1.445       .  S
C549        C550   1.384       .  A
C549        C738   1.491       .  S
C550        H553   1.083       .  S
C551        C552   1.383       .  A
C551        H554   1.082       .  S
C552        C714   1.480       .  S
N555        C556   1.363       .  A
N555        C621   1.445       .  S
C556        C557   1.380       .  A
C556        C642   1.479       .  S
C557        H560   1.083       .  S
C558        C559   1.379   1_554  A
C558        H561   1.082   1_554  S
C559        C669   1.477       .  S
C562        C563   1.414   1_655  A
C562        C567   1.423   1_545  A
C562        C981   1.486       .  S
C563        C564   1.419       .  A
C563        C909   1.496       .  S
C564        C565   1.418   1_545  A
C564        C834   1.493       .  S
C565        C566   1.423   1_455  A
C565        C765   1.489       .  S
C566        C567   1.416       .  A
C566        C693   1.493       .  S
C567        C618   1.497       .  S
In568       O570   2.248       .  S
In568       O571   2.264       .  S
In568       O579   2.250       .  S
In568       O573   2.270       .  S
In568       O575   2.264       .  S
In568       O576   2.266       .  S
In568       O577   2.244       .  S
In568       O580   2.254       .  S
C569        C786   1.486       .  S
C569        O575   1.267       .  A
C569        O577   1.261       .  A
O570        C578   1.261       .  A
O571        C578   1.266       .  A
C572        C957   1.490       .  S
C572        O579   1.261       .  A
C572        O573   1.266       .  A
C574        C741   1.489       .  S
C574        O576   1.265       .  A
C574        O580   1.262       .  A
C578       C1002   1.486       .  S
In581       O583   2.241       .  S
In581       O584   2.274       .  S
In581       O592   2.241       .  S
In581       O586   2.253       .  S
In581       O588   2.252       .  S
In581       O589   2.262       .  S
In581       O590   2.257       .  S
In581       O593   2.248       .  S
C582        C645   1.486       .  S
C582        O588   1.265       .  A
C582        O590   1.262       .  A
O583        C591   1.260       .  A
O584        C591   1.266       .  A
C585        C813   1.481       .  S
C585        O592   1.262       .  A
C585        O586   1.265       .  A
C587       C1029   1.485       .  S
C587        O589   1.266       .  A
C587        O593   1.260       .  A
C591        C858   1.486       .  S
In594       O596   2.251       .  S
In594       O597   2.257       .  S
In594       O605   2.253       .  S
In594       O599   2.268       .  S
In594       O601   2.260       .  S
In594       O602   2.267       .  S
In594       O603   2.229       .  S
In594       O606   2.255       .  S
C595        C930   1.480       .  S
C595        O601   1.266       .  A
C595        O603   1.260       .  A
O596        C604   1.259       .  A
O597        C604   1.265       .  A
C598        C666   1.488       .  S
C598        O605   1.262       .  A
C598        O599   1.265       .  A
C600        C882   1.487       .  S
C600        O602   1.265       .  A
C600        O606   1.262       .  A
C604        C717   1.482       .  S
C607        C608   1.405       .  A
C607        C612   1.406       .  A
C607        H623   1.084       .  S
C608        C609   1.406       .  A
C608        H624   1.084       .  S
C609        C619   1.412       .  A
C609        C610   1.413       .  A
C610        C611   1.417       .  A
C611        C612   1.412       .  A
C612        C620   1.412       .  A
C613        C622   1.406       .  A
C613        C614   1.404       .  A
C614        C615   1.401       .  A
C614        H625   1.083       .  S
C615        C616   1.404       .  A
C615        H626   1.083       .  S
C616        C617   1.407       .  A
C617        H627   1.084       .  S
C618        C619   1.409       .  A
C619        H628   1.084       .  S
C620        C621   1.409       .  A
C620        H629   1.084       .  S
C622        H630   1.083       .  S
C631        C632   1.404       .  A
C631        C636   1.407       .  A
C631        H647   1.084       .  S
C632        C633   1.406   1_545  A
C632        H648   1.085       .  S
C633        C643   1.410       .  A
C633        C634   1.414       .  A
C634        C640   1.411       .  A
C634        C635   1.415       .  A
C635        C637   1.412       .  A
C635        C636   1.412   1_565  A
C636        C644   1.410       .  A
C637        C646   1.403       .  A
C637        C638   1.403       .  A
C638        C639   1.397       .  A
C638        H649   1.083       .  S
C639        C640   1.403       .  A
C639        H650   1.084       .  S
C640        C641   1.401       .  A
C641        C642   1.404       .  A
C641        H651   1.085       .  S
C642        C643   1.404       .  A
C643        H652   1.089       .  S
C644        C645   1.411       .  A
C644        H653   1.084       .  S
C645        C646   1.405   1_545  A
C646        H654   1.084       .  S
C655        C656   1.402       .  A
C655        C660   1.405       .  A
C655        H671   1.083       .  S
C656        C657   1.405       .  A
C656        H672   1.084       .  S
C657        C667   1.407       .  A
C657        C658   1.411       .  A
C658        C664   1.413       .  A
C658        C659   1.416       .  A
C659        C661   1.411       .  A
C659        C660   1.413       .  A
C660        C668   1.409       .  A
C661        C670   1.404       .  A
C661        C662   1.404       .  A
C662        C663   1.400       .  A
C662        H673   1.084       .  S
C663        C664   1.404       .  A
C663        H674   1.083       .  S
C664        C665   1.408       .  A
C665        C666   1.408       .  A
C665        H675   1.084       .  S
C666        C667   1.410       .  A
C667        H676   1.084       .  S
C668        C669   1.406       .  A
C668        H677   1.084       .  S
C669        C670   1.405       .  A
C670        H678   1.085       .  S
C679        C680   1.398       .  A
C679        C684   1.403       .  A
C679        H695   1.084       .  S
C680        C681   1.403       .  A
C680        H696   1.084       .  S
C681        C691   1.402       .  A
C681        C682   1.411       .  A
C682        C683   1.415       .  A
C683        C684   1.411       .  A
C684        C692   1.402       .  A
C685        C694   1.404       .  A
C685        C686   1.404       .  A
C686        C687   1.400       .  A
C686        H697   1.084       .  S
C687        C688   1.404       .  A
C687        H698   1.084       .  S
C688        C689   1.405       .  A
C689        C690   1.406       .  A
C689        H699   1.084       .  S
C691        H700   1.084       .  S
C692        C693   1.404       .  A
C692        H701   1.084       .  S
C694        H702   1.085       .  S
C703        C704   1.403       .  A
C703        C708   1.406       .  A
C703        H719   1.085       .  S
C704        C705   1.405       .  A
C704        H720   1.083       .  S
C705        C715   1.410       .  A
C705        C706   1.414       .  A
C706        C712   1.410       .  A
C706        C707   1.413       .  A
C707        C709   1.413       .  A
C707        C708   1.411       .  A
C708        C716   1.408       .  A
C709        C718   1.401       .  A
C709        C710   1.402       .  A
C710        C711   1.396       .  A
C710        H721   1.082       .  S
C711        C712   1.402       .  A
C711        H722   1.084       .  S
C712        C713   1.396       .  A
C713        C714   1.404       .  A
C713        H723   1.085       .  S
C714        C715   1.407       .  A
C715        H724   1.084       .  S
C716        C717   1.411       .  A
C716        H725   1.085       .  S
C717        C718   1.403       .  A
C718        H726   1.083       .  S
C727        C728   1.404       .  A
C727        C732   1.405       .  A
C727        H743   1.084       .  S
C728        C729   1.405       .  A
C728        H744   1.083       .  S
C729        C739   1.415       .  A
C729        C730   1.414       .  A
C730        C736   1.409       .  A
C730        C731   1.418       .  A
C731        C733   1.413       .  A
C731        C732   1.410       .  A
C732        C740   1.409       .  A
C733        C742   1.408       .  A
C733        C734   1.403       .  A
C734        C735   1.400       .  A
C734        H745   1.084       .  S
C735        C736   1.404       .  A
C735        H746   1.084       .  S
C736        C737   1.403       .  A
C737        C738   1.409       .  A
C737        H747   1.085       .  S
C738        C739   1.409       .  A
C739        H748   1.084       .  S
C740        C741   1.410       .  A
C740        H749   1.084       .  S
C741        C742   1.407       .  A
C742        H750   1.084       .  S
C751        C752   1.402       .  A
C751        C756   1.405       .  A
C751        H767   1.083       .  S
C752        C753   1.404       .  A
C752        H768   1.084       .  S
C753        C763   1.409       .  A
C754        C760   1.410       .  A
C754        C755   1.415       .  A
C755        C757   1.412       .  A
C756        C764   1.407       .  A
C757        C766   1.403       .  A
C757        C758   1.403       .  A
C758        C759   1.399       .  A
C758        H769   1.084       .  S
C759        C760   1.404       .  A
C759        H770   1.084       .  S
C760        C761   1.403       .  A
C761        C762   1.409       .  A
C761        H771   1.082       .  S
C763        H772   1.084       .  S
C764        H773   1.084       .  S
C765        C766   1.404       .  A
C766        H774   1.085       .  S
C775        C776   1.399       .  A
C775        C780   1.403       .  A
C775        H791   1.084       .  S
C776        C777   1.404       .  A
C776        H792   1.083       .  S
C777        C787   1.406       .  A
C777        C778   1.413       .  A
C778        C784   1.411   1_455  A
C778        C779   1.414       .  A
C779        C781   1.414       .  A
C779        C780   1.411       .  A
C780        C788   1.401       .  A
C781        C790   1.406       .  A
C781        C782   1.404   1_455  A
C782        C783   1.401       .  A
C782        H793   1.084       .  S
C783        C784   1.406       .  A
C783        H794   1.083       .  S
C784        C785   1.406       .  A
C785        C786   1.410       .  A
C785        H795   1.084       .  S
C786        C787   1.406   1_655  A
C787        H796   1.084       .  S
C788        C789   1.404       .  A
C788        H797   1.085       .  S
C789        C790   1.402       .  A
C790        H798   1.082       .  S
C799        C800   1.399       .  A
C799        C804   1.403       .  A
C799        H815   1.083       .  S
C800        C801   1.404       .  A
C800        H816   1.084       .  S
C801        C811   1.402       .  A
C801        C802   1.411       .  A
C802        C808   1.414       .  A
C802        C803   1.413       .  A
C803        C805   1.411   1_565  A
C803        C804   1.413       .  A
C804        C812   1.404       .  A
C805        C814   1.405       .  A
C805        C806   1.405       .  A
C806        C807   1.400       .  A
C806        H817   1.084       .  S
C807        C808   1.404   1_545  A
C807        H818   1.084       .  S
C808        C809   1.406       .  A
C809        C810   1.404       .  A
C809        H819   1.085       .  S
C810        C811   1.405       .  A
C811        H820   1.085       .  S
C812        C813   1.406   1_565  A
C812        H821   1.084       .  S
C813        C814   1.408       .  A
C814        H822   1.084       .  S
C823        C824   1.399       .  A
C823        C828   1.404       .  A
C823        H839   1.084       .  S
C824        C825   1.404       .  A
C824        H840   1.084       .  S
C825        C835   1.403       .  A
C825        C826   1.411       .  A
C827        C829   1.411       .  A
C828        C836   1.403       .  A
C829        C838   1.403       .  A
C829        C830   1.403       .  A
C830        C831   1.399       .  A
C830        H841   1.084       .  S
C831        C832   1.403       .  A
C831        H842   1.083       .  S
C832        C833   1.403       .  A
C833        H843   1.084       .  S
C834        C835   1.407       .  A
C835        H844   1.085       .  S
C836        H845   1.084       .  S
C837        C838   1.407       .  A
C838        H846   1.084       .  S
C847        C848   1.400       .  A
C847        C852   1.404       .  A
C847        H863   1.083       .  S
C848        C849   1.404       .  A
C848        H864   1.084       .  S
C849        C859   1.404       .  A
C849        C850   1.410       .  A
C850        C856   1.413       .  A
C850        C851   1.415       .  A
C851        C853   1.410       .  A
C851        C852   1.414       .  A
C852        C860   1.407       .  A
C853        C862   1.403       .  A
C853        C854   1.404       .  A
C854        C855   1.401       .  A
C854        H865   1.084       .  S
C855        C856   1.405       .  A
C855        H866   1.083       .  S
C856        C857   1.408       .  A
C857        C858   1.408       .  A
C857        H867   1.083       .  S
C858        C859   1.408       .  A
C859        H868   1.085       .  S
C860        C861   1.405       .  A
C860        H869   1.084       .  S
C861        C862   1.407       .  A
C862        H870   1.085       .  S
C871        C872   1.401       .  A
C871        C876   1.405       .  A
C871        H887   1.084       .  S
C872        C873   1.404       .  A
C872        H888   1.084       .  S
C873        C883   1.409       .  A
C873        C874   1.413       .  A
C874        C880   1.411       .  A
C874        C875   1.418       .  A
C875        C877   1.414       .  A
C875        C876   1.410       .  A
C876        C884   1.405       .  A
C877        C886   1.412       .  A
C877        C878   1.404       .  A
C878        C879   1.402       .  A
C878        H889   1.083       .  S
C879        C880   1.405       .  A
C879        H890   1.084       .  S
C880        C881   1.408       .  A
C881        C882   1.408       .  A
C881        H891   1.084       .  S
C882        C883   1.408       .  A
C883        H892   1.084       .  S
C884        C885   1.410       .  A
C884        H893   1.085       .  S
C885        C886   1.407       .  A
C886        H894   1.084       .  S
C895        C896   1.404       .  A
C895        C900   1.405       .  A
C895        H911   1.083       .  S
C896        C897   1.405       .  A
C896        H912   1.083       .  S
C897        C907   1.412       .  A
C897        C898   1.413       .  A
C898        C899   1.417       .  A
C899        C900   1.413       .  A
C900        C908   1.411       .  A
C901        C910   1.407       .  A
C901        C902   1.404       .  A
C902        C903   1.401       .  A
C902        H913   1.084       .  S
C903        C904   1.404       .  A
C903        H914   1.083       .  S
C904        C905   1.408       .  A
C905        H915   1.083       .  S
C906        C907   1.409       .  A
C907        H916   1.083       .  S
C908        C909   1.408       .  A
C908        H917   1.084       .  S
C910        H918   1.084       .  S
C919        C920   1.398       .  A
C919        C924   1.404       .  A
C919        H935   1.084       .  S
C920        C921   1.403       .  A
C920        H936   1.083       .  S
C921        C931   1.405       .  A
C921        C922   1.413       .  A
C922        C928   1.410       .  A
C922        C923   1.412       .  A
C923        C925   1.414       .  A
C923        C924   1.411       .  A
C924        C932   1.401       .  A
C925        C934   1.405       .  A
C925        C926   1.403       .  A
C926        C927   1.400       .  A
C926        H937   1.084       .  S
C927        C928   1.405       .  A
C927        H938   1.083       .  S
C928        C929   1.403       .  A
C929        C930   1.409       .  A
C929        H939   1.084       .  S
C930        C931   1.405       .  A
C931        H940   1.084       .  S
C932        C933   1.404       .  A
C932        H941   1.086       .  S
C933        C934   1.402       .  A
C934        H942   1.084       .  S
C943        C944   1.400       .  A
C943        C948   1.404       .  A
C943        H959   1.083       .  S
C944        C945   1.403       .  A
C944        H960   1.084       .  S
C945        C955   1.404       .  A
C945        C946   1.411       .  A
C946        C952   1.413       .  A
C946        C947   1.417       .  A
C947        C949   1.411   1_455  A
C947        C948   1.413       .  A
C948        C956   1.407       .  A
C949        C958   1.409       .  A
C949        C950   1.406       .  A
C950        C951   1.403       .  A
C950        H961   1.084       .  S
C951        C952   1.406   1_655  A
C951        H962   1.084       .  S
C952        C953   1.411       .  A
C953        C954   1.409       .  A
C953        H963   1.085       .  S
C954        C955   1.405       .  A
C955        H964   1.085       .  S
C956        C957   1.407   1_455  A
C956        H965   1.084       .  S
C957        C958   1.411       .  A
C958        H966   1.084       .  S
C967        C968   1.398       .  A
C967        C972   1.402       .  A
C967        H983   1.084       .  S
C968        C969   1.403       .  A
C968        H984   1.083       .  S
C969        C979   1.402       .  A
C969        C970   1.412       .  A
C970        C971   1.413       .  A
C971        C972   1.411       .  A
C972        C980   1.399       .  A
C973        C982   1.407       .  A
C973        C974   1.405       .  A
C974        C975   1.402       .  A
C974        H985   1.083       .  S
C975        C976   1.404       .  A
C975        H986   1.084       .  S
C976        C977   1.407       .  A
C977        H987   1.084       .  S
C978        C979   1.404       .  A
C979        H988   1.084       .  S
C980        C981   1.403       .  A
C980        H989   1.085       .  S
C982        H990   1.084       .  S
C991        C992   1.398       .  A
C991        C996   1.404       .  A
C991       H1007   1.084       .  S
C992        C993   1.403       .  A
C992       H1008   1.083       .  S
C993       C1003   1.406       .  A
C993        C994   1.413       .  A
C994       C1000   1.410       .  A
C994        C995   1.416       .  A
C995        C997   1.414       .  A
C995        C996   1.408       .  A
C996       C1004   1.400       .  A
C997       C1006   1.414       .  A
C997        C998   1.405       .  A
C998        C999   1.404       .  A
C998       H1009   1.083       .  S
C999       C1000   1.406       .  A
C999       H1010   1.084       .  S
C1000      C1001   1.408       .  A
C1001      C1002   1.410       .  A
C1001      H1011   1.084       .  S
C1002      C1003   1.406       .  A
C1003      H1012   1.084       .  S
C1004      C1005   1.409       .  A
C1004      H1013   1.084       .  S
C1005      C1006   1.409       .  A
C1006      H1014   1.083       .  S
C1015      C1016   1.402       .  A
C1015      C1020   1.406       .  A
C1015      H1031   1.084       .  S
C1016      C1017   1.404       .  A
C1016      H1032   1.084       .  S
C1017      C1027   1.409       .  A
C1017      C1018   1.414       .  A
C1018      C1024   1.411       .  A
C1018      C1019   1.414       .  A
C1019      C1021   1.413       .  A
C1019      C1020   1.411       .  A
C1020      C1028   1.408       .  A
C1021      C1030   1.404       .  A
C1021      C1022   1.403       .  A
C1022      C1023   1.398       .  A
C1022      H1033   1.083       .  S
C1023      C1024   1.403       .  A
C1023      H1034   1.084       .  S
C1024      C1025   1.401       .  A
C1025      C1026   1.405       .  A
C1025      H1035   1.085       .  S
C1026      C1027   1.405       .  A
C1027      H1036   1.084       .  S
C1028      C1029   1.410       .  A
C1028      H1037   1.084       .  S
C1029      C1030   1.405       .  A
C1030      H1038   1.084       .  S
